1

   Abaqus 6.9-1                                  Date 13-Oct-2015   Time 00:23:09
   For use at GEORGIA INSTITUTE OF TECHNOLOGY under license from Dassault Systemes or its subsidiary.

                                                                                 
                                                                                 
 STEP    1     INCREMENT     1     STEP TIME    0.00    


                        S T E P       1     S T A T I C   A N A L Y S I S


                                                                                          

     AUTOMATIC TIME CONTROL WITH -
          A SUGGESTED INITIAL TIME INCREMENT OF                1.000E-04
          AND A TOTAL TIME PERIOD OF                            6.00    
          THE MINIMUM TIME INCREMENT ALLOWED IS                1.000E-09
          THE MAXIMUM TIME INCREMENT ALLOWED IS                 6.00    

     LINEAR EQUATION SOLVER TYPE         DIRECT SPARSE

 CONVERGENCE TOLERANCE PARAMETERS FOR FORCE    
     CRITERION FOR RESIDUAL FORCE     FOR A NONLINEAR PROBLEM          5.000E-03
     CRITERION FOR DISP.    CORRECTION IN A NONLINEAR PROBLEM          1.000E-02
     INITIAL VALUE OF TIME AVERAGE FORCE                               1.000E-02
     AVERAGE FORCE     IS TIME AVERAGE FORCE    
     ALTERNATE CRIT. FOR RESIDUAL FORCE     FOR A NONLINEAR PROBLEM    2.000E-02
     CRITERION FOR ZERO FORCE     RELATIVE TO TIME AVRG. FORCE         1.000E-05
     CRITERION FOR RESIDUAL FORCE     WHEN THERE IS ZERO FLUX          1.000E-05
     CRITERION FOR DISP.    CORRECTION WHEN THERE IS ZERO FLUX         1.000E-03
     CRITERION FOR RESIDUAL FORCE     FOR A LINEAR INCREMENT           1.000E-08
     FIELD CONVERSION RATIO                                             1.00    
     CRITERION FOR ZERO FORCE     REL. TO TIME AVRG. MAX. FORCE        1.000E-05
     CRITERION FOR ZERO DISP.    RELATIVE TO CHARACTERISTIC LENGTH     1.000E-08

     VOLUMETRIC STRAIN COMPATIBILITY TOLERANCE FOR HYBRID SOLIDS       1.000E-05
     AXIAL STRAIN COMPATIBILITY TOLERANCE FOR HYBRID BEAMS             1.000E-05
     TRANS. SHEAR STRAIN COMPATIBILITY TOLERANCE FOR HYBRID BEAMS      1.000E-05
     SOFT CONTACT CONSTRAINT COMPATIBILITY TOLERANCE FOR P>P0          5.000E-03
     SOFT CONTACT CONSTRAINT COMPATIBILITY TOLERANCE FOR P=0.0         0.100    
     CONTACT FORCE ERROR TOLERANCE FOR CONVERT SDI=YES                 1.00    
     DISPLACEMENT COMPATIBILITY TOLERANCE FOR DCOUP ELEMENTS           1.000E-05
     ROTATION COMPATIBILITY TOLERANCE FOR DCOUP ELEMENTS               1.000E-05

 EQUILIBRIUM WILL BE CHECKED FOR SEVERE DISCONTINUITY ITERATIONS

 TIME INCREMENTATION CONTROL PARAMETERS:
 *** FIRST EQUILIBRIUM ITERATION FOR CONSECUTIVE DIVERGENCE CHECK             20
 *** EQUILIBRIUM ITERATION AT WHICH LOG. CONVERGENCE RATE CHECK BEGINS        20
     EQUILIBRIUM ITERATION AFTER WHICH ALTERNATE RESIDUAL IS USED              9
 *** MAXIMUM EQUILIBRIUM ITERATIONS ALLOWED                                   15
 *** EQUILIBRIUM ITERATION COUNT FOR CUT-BACK IN NEXT INCREMENT               15
 *** MAXIMUM EQUILIB. ITERS IN TWO INCREMENTS FOR TIME INCREMENT INCREASE     15
     MAXIMUM ITERATIONS FOR SEVERE DISCONTINUITIES                            50
 *** MAXIMUM CUT-BACKS ALLOWED IN AN INCREMENT                                30
     MAXIMUM DISCON. ITERS IN TWO INCREMENTS FOR TIME INCREMENT INCREASE      50
     MAXIMUM CONTACT AUGMENTATIONS FOR *SURFACE BEHAVIOR,AUGMENTED LAGRANGE    6
 *** CUT-BACK FACTOR AFTER DIVERGENCE                                 0.5000    
     CUT-BACK FACTOR FOR TOO SLOW CONVERGENCE                         0.5000    
     CUT-BACK FACTOR AFTER TOO MANY EQUILIBRIUM ITERATIONS            0.7500    
     CUT-BACK FACTOR AFTER TOO MANY SEVERE DISCONTINUITY ITERATIONS   0.2500    
     CUT-BACK FACTOR AFTER PROBLEMS IN ELEMENT ASSEMBLY               0.2500    
     INCREASE FACTOR AFTER TWO INCREMENTS THAT CONVERGE QUICKLY        1.500    
     MAX. TIME INCREMENT INCREASE FACTOR ALLOWED                       1.500    
     MAX. TIME INCREMENT INCREASE FACTOR ALLOWED (DYNAMICS)            1.250    
     MAX. TIME INCREMENT INCREASE FACTOR ALLOWED (DIFFUSION)           2.000    
     MINIMUM TIME INCREMENT RATIO FOR EXTRAPOLATION TO OCCUR          0.1000    
     MAX. RATIO OF TIME INCREMENT TO STABILITY LIMIT                   1.000    
     FRACTION OF STABILITY LIMIT FOR NEW TIME INCREMENT               0.9500    
     TIME INCREMENT INCREASE FACTOR BEFORE A TIME POINT                1.000    

 *** INDICATES USE OF NON-DEFAULT TIME INCREMENTATION CONTROL PARAMETER
     SELECTED WITH *CONTROLS
     AUTOMATIC TOLERANCES FOR OVERCLOSURE AND SEPARATION 
     PRESSURE ARE SUPPRESSED
     GLOBAL STABILIZATION CONTROL IS NOT USED
     FRICTION IS INCLUDED IN INCREMENT THAT THE CONTACT POINT CLOSES

          PRINT OF INCREMENT NUMBER, TIME, ETC., EVERY    1  INCREMENTS

     THE MAXIMUM NUMBER OF INCREMENTS IN THIS STEP IS                   10000

          LARGE DISPLACEMENT THEORY WILL BE USED

          UNSYMMETRIC MATRIX STORAGE AND SOLUTION WILL BE USED

     LINEAR EXTRAPOLATION WILL BE USED

     CHARACTERISTIC ELEMENT LENGTH     1.000E-03

     DETAILED OUTPUT OF DIAGNOSTICS TO DATABASE REQUESTED

     PRINT OF INCREMENT NUMBER, TIME, ETC., TO THE MESSAGE FILE EVERY     1  INCREMENTS

     ELEMENT OPERATIONS WILL BE CARRIED OUT IN PARALLEL USING   6 PROCESSORS

     PARALLEL CONTACT TRACKING ENABLED


     EQUATIONS ARE BEING REORDERED TO MINIMIZE WAVEFRONT

     COLLECTING MODEL CONSTRAINT INFORMATION FOR OVERCONSTRAINT CHECKS

     COLLECTING STEP CONSTRAINT INFORMATION FOR OVERCONSTRAINT CHECKS


  INCREMENT     1 STARTS. ATTEMPT NUMBER  1, TIME INCREMENT  1.000E-04
 
     INITIAL ELEMENT LOAD BALANCE
        COMPUTE NODE   1   PROCESS    NUMBER OF ELEMENTS
                              1            1536
                              2            1536
                              3            1325
                              4            1536
                              5            1792
                              6            1536

  USING THE DIRECT SOLVER WITH   6 PROCESSORS

               CONVERGENCE CHECKS FOR EQUILIBRIUM ITERATION     1


 AVERAGE FORCE                      4.717E-10   TIME AVG. FORCE       1.000E-02
 LARGEST RESIDUAL FORCE            -7.268E-10   AT NODE       5577   DOF  1
 LARGEST INCREMENT OF DISP.         2.100E-09   AT NODE        463   DOF  1
 LARGEST CORRECTION TO DISP.        2.100E-09   AT NODE        463   DOF  1
          THERE IS ZERO FORCE     EVERYWHERE
 

 ***WARNING: THERE IS ZERO FORCE EVERYWHERE IN THE MODEL BASED ON THE DEFAULT 
             CRITERION. PLEASE CHECK THE VALUE OF THE AVERAGE FORCE DURING THE 
             CURRENT ITERATION TO VERIFY THAT THE FORCE IS SMALL ENOUGH TO BE 
             TREATED AS ZERO. IF NOT, PLEASE USE THE SOLUTION CONTROLS TO RESET 
             THE CRITERION FOR ZERO FORCE.

 ITERATION SUMMARY FOR THE INCREMENT:   1 TOTAL ITERATIONS, OF WHICH
   0 ARE SEVERE DISCONTINUITY ITERATIONS AND  1 ARE EQUILIBRIUM ITERATIONS.

 TIME INCREMENT COMPLETED  1.000E-04,  FRACTION OF STEP COMPLETED  1.667E-05
 STEP TIME COMPLETED       1.000E-04,  TOTAL TIME COMPLETED        1.000E-04


  INCREMENT     2 STARTS. ATTEMPT NUMBER  1, TIME INCREMENT  1.000E-04

  USING THE DIRECT SOLVER WITH   6 PROCESSORS

               CONVERGENCE CHECKS FOR EQUILIBRIUM ITERATION     1


 AVERAGE FORCE                      9.437E-10   TIME AVG. FORCE       1.000E-02
 LARGEST RESIDUAL FORCE             2.139E-10   AT NODE       5093   DOF  2
 LARGEST INCREMENT OF DISP.         2.100E-09   AT NODE       8709   DOF  1
 LARGEST CORRECTION TO DISP.        1.376E-11   AT NODE       5072   DOF  1
          THERE IS ZERO FORCE     EVERYWHERE
 

 ***WARNING: THERE IS ZERO FORCE EVERYWHERE IN THE MODEL BASED ON THE DEFAULT 
             CRITERION. PLEASE CHECK THE VALUE OF THE AVERAGE FORCE DURING THE 
             CURRENT ITERATION TO VERIFY THAT THE FORCE IS SMALL ENOUGH TO BE 
             TREATED AS ZERO. IF NOT, PLEASE USE THE SOLUTION CONTROLS TO RESET 
             THE CRITERION FOR ZERO FORCE.
          TIME INCREMENT MAY NOW INCREASE TO    1.500E-04

 ITERATION SUMMARY FOR THE INCREMENT:   1 TOTAL ITERATIONS, OF WHICH
   0 ARE SEVERE DISCONTINUITY ITERATIONS AND  1 ARE EQUILIBRIUM ITERATIONS.

 TIME INCREMENT COMPLETED  1.000E-04,  FRACTION OF STEP COMPLETED  3.333E-05
 STEP TIME COMPLETED       2.000E-04,  TOTAL TIME COMPLETED        2.000E-04


  INCREMENT     3 STARTS. ATTEMPT NUMBER  1, TIME INCREMENT  1.500E-04

  USING THE DIRECT SOLVER WITH   6 PROCESSORS

               CONVERGENCE CHECKS FOR EQUILIBRIUM ITERATION     1


 AVERAGE FORCE                      1.651E-09   TIME AVG. FORCE       1.000E-02
 LARGEST RESIDUAL FORCE            -4.569E-11   AT NODE       5555   DOF  1
 LARGEST INCREMENT OF DISP.         3.150E-09   AT NODE       5805   DOF  1
 LARGEST CORRECTION TO DISP.       -5.441E-12   AT NODE       5555   DOF  2
          THERE IS ZERO FORCE     EVERYWHERE
 

 ***WARNING: THERE IS ZERO FORCE EVERYWHERE IN THE MODEL BASED ON THE DEFAULT 
             CRITERION. PLEASE CHECK THE VALUE OF THE AVERAGE FORCE DURING THE 
             CURRENT ITERATION TO VERIFY THAT THE FORCE IS SMALL ENOUGH TO BE 
             TREATED AS ZERO. IF NOT, PLEASE USE THE SOLUTION CONTROLS TO RESET 
             THE CRITERION FOR ZERO FORCE.
          TIME INCREMENT MAY NOW INCREASE TO    2.250E-04

 ITERATION SUMMARY FOR THE INCREMENT:   1 TOTAL ITERATIONS, OF WHICH
   0 ARE SEVERE DISCONTINUITY ITERATIONS AND  1 ARE EQUILIBRIUM ITERATIONS.

 TIME INCREMENT COMPLETED  1.500E-04,  FRACTION OF STEP COMPLETED  5.833E-05
 STEP TIME COMPLETED       3.500E-04,  TOTAL TIME COMPLETED        3.500E-04


  INCREMENT     4 STARTS. ATTEMPT NUMBER  1, TIME INCREMENT  2.250E-04

  USING THE DIRECT SOLVER WITH   6 PROCESSORS

               CONVERGENCE CHECKS FOR EQUILIBRIUM ITERATION     1


 AVERAGE FORCE                      2.713E-09   TIME AVG. FORCE       1.000E-02
 LARGEST RESIDUAL FORCE            -7.299E-11   AT NODE       5556   DOF  1
 LARGEST INCREMENT OF DISP.         4.725E-09   AT NODE       4819   DOF  1
 LARGEST CORRECTION TO DISP.        4.137E-12   AT NODE       5578   DOF  1
          THERE IS ZERO FORCE     EVERYWHERE
 

 ***WARNING: THERE IS ZERO FORCE EVERYWHERE IN THE MODEL BASED ON THE DEFAULT 
             CRITERION. PLEASE CHECK THE VALUE OF THE AVERAGE FORCE DURING THE 
             CURRENT ITERATION TO VERIFY THAT THE FORCE IS SMALL ENOUGH TO BE 
             TREATED AS ZERO. IF NOT, PLEASE USE THE SOLUTION CONTROLS TO RESET 
             THE CRITERION FOR ZERO FORCE.
          TIME INCREMENT MAY NOW INCREASE TO    3.375E-04

 ITERATION SUMMARY FOR THE INCREMENT:   1 TOTAL ITERATIONS, OF WHICH
   0 ARE SEVERE DISCONTINUITY ITERATIONS AND  1 ARE EQUILIBRIUM ITERATIONS.

 TIME INCREMENT COMPLETED  2.250E-04,  FRACTION OF STEP COMPLETED  9.583E-05
 STEP TIME COMPLETED       5.750E-04,  TOTAL TIME COMPLETED        5.750E-04


  INCREMENT     5 STARTS. ATTEMPT NUMBER  1, TIME INCREMENT  3.375E-04

  USING THE DIRECT SOLVER WITH   6 PROCESSORS

               CONVERGENCE CHECKS FOR EQUILIBRIUM ITERATION     1


 AVERAGE FORCE                      4.305E-09   TIME AVG. FORCE       1.000E-02
 LARGEST RESIDUAL FORCE             4.536E-11   AT NODE       5095   DOF  1
 LARGEST INCREMENT OF DISP.         7.088E-09   AT NODE       5312   DOF  1
 LARGEST CORRECTION TO DISP.       -1.068E-12   AT NODE       5599   DOF  2
          THERE IS ZERO FORCE     EVERYWHERE
 

 ***WARNING: THERE IS ZERO FORCE EVERYWHERE IN THE MODEL BASED ON THE DEFAULT 
             CRITERION. PLEASE CHECK THE VALUE OF THE AVERAGE FORCE DURING THE 
             CURRENT ITERATION TO VERIFY THAT THE FORCE IS SMALL ENOUGH TO BE 
             TREATED AS ZERO. IF NOT, PLEASE USE THE SOLUTION CONTROLS TO RESET 
             THE CRITERION FOR ZERO FORCE.
          TIME INCREMENT MAY NOW INCREASE TO    5.062E-04

 ITERATION SUMMARY FOR THE INCREMENT:   1 TOTAL ITERATIONS, OF WHICH
   0 ARE SEVERE DISCONTINUITY ITERATIONS AND  1 ARE EQUILIBRIUM ITERATIONS.

 TIME INCREMENT COMPLETED  3.375E-04,  FRACTION OF STEP COMPLETED  1.521E-04
 STEP TIME COMPLETED       9.125E-04,  TOTAL TIME COMPLETED        9.125E-04


  INCREMENT     6 STARTS. ATTEMPT NUMBER  1, TIME INCREMENT  5.062E-04

  USING THE DIRECT SOLVER WITH   6 PROCESSORS

               CONVERGENCE CHECKS FOR EQUILIBRIUM ITERATION     1


 AVERAGE FORCE                      6.694E-09   TIME AVG. FORCE       1.000E-02
 LARGEST RESIDUAL FORCE            -2.608E-11   AT NODE       5070   DOF  1
 LARGEST INCREMENT OF DISP.         1.063E-08   AT NODE       5798   DOF  1
 LARGEST CORRECTION TO DISP.       -7.586E-13   AT NODE       5115   DOF  2
          THERE IS ZERO FORCE     EVERYWHERE
 

 ***WARNING: THERE IS ZERO FORCE EVERYWHERE IN THE MODEL BASED ON THE DEFAULT 
             CRITERION. PLEASE CHECK THE VALUE OF THE AVERAGE FORCE DURING THE 
             CURRENT ITERATION TO VERIFY THAT THE FORCE IS SMALL ENOUGH TO BE 
             TREATED AS ZERO. IF NOT, PLEASE USE THE SOLUTION CONTROLS TO RESET 
             THE CRITERION FOR ZERO FORCE.
          TIME INCREMENT MAY NOW INCREASE TO    7.594E-04

 ITERATION SUMMARY FOR THE INCREMENT:   1 TOTAL ITERATIONS, OF WHICH
   0 ARE SEVERE DISCONTINUITY ITERATIONS AND  1 ARE EQUILIBRIUM ITERATIONS.

 TIME INCREMENT COMPLETED  5.062E-04,  FRACTION OF STEP COMPLETED  2.365E-04
 STEP TIME COMPLETED       1.419E-03,  TOTAL TIME COMPLETED        1.419E-03


  INCREMENT     7 STARTS. ATTEMPT NUMBER  1, TIME INCREMENT  7.594E-04

  USING THE DIRECT SOLVER WITH   6 PROCESSORS

               CONVERGENCE CHECKS FOR EQUILIBRIUM ITERATION     1


 AVERAGE FORCE                      1.028E-08   TIME AVG. FORCE       1.000E-02
 LARGEST RESIDUAL FORCE            -6.287E-12   AT NODE       5625   DOF  1
 LARGEST INCREMENT OF DISP.         1.595E-08   AT NODE       5798   DOF  1
 LARGEST CORRECTION TO DISP.        3.961E-13   AT NODE       5072   DOF  1
          THERE IS ZERO FORCE     EVERYWHERE
 

 ***WARNING: THERE IS ZERO FORCE EVERYWHERE IN THE MODEL BASED ON THE DEFAULT 
             CRITERION. PLEASE CHECK THE VALUE OF THE AVERAGE FORCE DURING THE 
             CURRENT ITERATION TO VERIFY THAT THE FORCE IS SMALL ENOUGH TO BE 
             TREATED AS ZERO. IF NOT, PLEASE USE THE SOLUTION CONTROLS TO RESET 
             THE CRITERION FOR ZERO FORCE.
          TIME INCREMENT MAY NOW INCREASE TO    1.139E-03

 ITERATION SUMMARY FOR THE INCREMENT:   1 TOTAL ITERATIONS, OF WHICH
   0 ARE SEVERE DISCONTINUITY ITERATIONS AND  1 ARE EQUILIBRIUM ITERATIONS.

 TIME INCREMENT COMPLETED  7.594E-04,  FRACTION OF STEP COMPLETED  3.630E-04
 STEP TIME COMPLETED       2.178E-03,  TOTAL TIME COMPLETED        2.178E-03


  INCREMENT     8 STARTS. ATTEMPT NUMBER  1, TIME INCREMENT  1.139E-03

  USING THE DIRECT SOLVER WITH   6 PROCESSORS

               CONVERGENCE CHECKS FOR EQUILIBRIUM ITERATION     1


 AVERAGE FORCE                      1.565E-08   TIME AVG. FORCE       1.000E-02
 LARGEST RESIDUAL FORCE             1.361E-11   AT NODE       5073   DOF  1
 LARGEST INCREMENT OF DISP.         2.392E-08   AT NODE       5314   DOF  1
 LARGEST CORRECTION TO DISP.       -3.368E-13   AT NODE       5116   DOF  2
          THERE IS ZERO FORCE     EVERYWHERE
 

 ***WARNING: THERE IS ZERO FORCE EVERYWHERE IN THE MODEL BASED ON THE DEFAULT 
             CRITERION. PLEASE CHECK THE VALUE OF THE AVERAGE FORCE DURING THE 
             CURRENT ITERATION TO VERIFY THAT THE FORCE IS SMALL ENOUGH TO BE 
             TREATED AS ZERO. IF NOT, PLEASE USE THE SOLUTION CONTROLS TO RESET 
             THE CRITERION FOR ZERO FORCE.
          TIME INCREMENT MAY NOW INCREASE TO    1.709E-03

 ITERATION SUMMARY FOR THE INCREMENT:   1 TOTAL ITERATIONS, OF WHICH
   0 ARE SEVERE DISCONTINUITY ITERATIONS AND  1 ARE EQUILIBRIUM ITERATIONS.

 TIME INCREMENT COMPLETED  1.139E-03,  FRACTION OF STEP COMPLETED  5.529E-04
 STEP TIME COMPLETED       3.317E-03,  TOTAL TIME COMPLETED        3.317E-03


  INCREMENT     9 STARTS. ATTEMPT NUMBER  1, TIME INCREMENT  1.709E-03

  USING THE DIRECT SOLVER WITH   6 PROCESSORS

               CONVERGENCE CHECKS FOR EQUILIBRIUM ITERATION     1


 AVERAGE FORCE                      2.371E-08   TIME AVG. FORCE       1.000E-02
 LARGEST RESIDUAL FORCE            -1.455E-11   AT NODE       5576   DOF  1
 LARGEST INCREMENT OF DISP.         3.588E-08   AT NODE       5314   DOF  1
 LARGEST CORRECTION TO DISP.        3.534E-13   AT NODE       5049   DOF  2
          THERE IS ZERO FORCE     EVERYWHERE
 

 ***WARNING: THERE IS ZERO FORCE EVERYWHERE IN THE MODEL BASED ON THE DEFAULT 
             CRITERION. PLEASE CHECK THE VALUE OF THE AVERAGE FORCE DURING THE 
             CURRENT ITERATION TO VERIFY THAT THE FORCE IS SMALL ENOUGH TO BE 
             TREATED AS ZERO. IF NOT, PLEASE USE THE SOLUTION CONTROLS TO RESET 
             THE CRITERION FOR ZERO FORCE.
          TIME INCREMENT MAY NOW INCREASE TO    2.563E-03

 ITERATION SUMMARY FOR THE INCREMENT:   1 TOTAL ITERATIONS, OF WHICH
   0 ARE SEVERE DISCONTINUITY ITERATIONS AND  1 ARE EQUILIBRIUM ITERATIONS.

 TIME INCREMENT COMPLETED  1.709E-03,  FRACTION OF STEP COMPLETED  8.376E-04
 STEP TIME COMPLETED       5.026E-03,  TOTAL TIME COMPLETED        5.026E-03


  INCREMENT    10 STARTS. ATTEMPT NUMBER  1, TIME INCREMENT  2.563E-03

  USING THE DIRECT SOLVER WITH   6 PROCESSORS

               CONVERGENCE CHECKS FOR EQUILIBRIUM ITERATION     1


 AVERAGE FORCE                      3.581E-08   TIME AVG. FORCE       1.000E-02
 LARGEST RESIDUAL FORCE            -7.818E-12   AT NODE       5092   DOF  1
 LARGEST INCREMENT OF DISP.         5.382E-08   AT NODE       5314   DOF  1
 LARGEST CORRECTION TO DISP.       -1.774E-13   AT NODE       5116   DOF  2
          THERE IS ZERO FORCE     EVERYWHERE
 

 ***WARNING: THERE IS ZERO FORCE EVERYWHERE IN THE MODEL BASED ON THE DEFAULT 
             CRITERION. PLEASE CHECK THE VALUE OF THE AVERAGE FORCE DURING THE 
             CURRENT ITERATION TO VERIFY THAT THE FORCE IS SMALL ENOUGH TO BE 
             TREATED AS ZERO. IF NOT, PLEASE USE THE SOLUTION CONTROLS TO RESET 
             THE CRITERION FOR ZERO FORCE.
          TIME INCREMENT MAY NOW INCREASE TO    3.844E-03

 ITERATION SUMMARY FOR THE INCREMENT:   1 TOTAL ITERATIONS, OF WHICH
   0 ARE SEVERE DISCONTINUITY ITERATIONS AND  1 ARE EQUILIBRIUM ITERATIONS.

 TIME INCREMENT COMPLETED  2.563E-03,  FRACTION OF STEP COMPLETED  1.265E-03
 STEP TIME COMPLETED       7.589E-03,  TOTAL TIME COMPLETED        7.589E-03


  INCREMENT    11 STARTS. ATTEMPT NUMBER  1, TIME INCREMENT  3.844E-03

  USING THE DIRECT SOLVER WITH   6 PROCESSORS

               CONVERGENCE CHECKS FOR EQUILIBRIUM ITERATION     1


 AVERAGE FORCE                      5.394E-08   TIME AVG. FORCE       1.000E-02
 LARGEST RESIDUAL FORCE             2.551E-12   AT NODE       5618   DOF  1
 LARGEST INCREMENT OF DISP.         8.073E-08   AT NODE       5798   DOF  1
 LARGEST CORRECTION TO DISP.       -1.468E-13   AT NODE      10514   DOF  3
          THERE IS ZERO FORCE     EVERYWHERE
 

 ***WARNING: THERE IS ZERO FORCE EVERYWHERE IN THE MODEL BASED ON THE DEFAULT 
             CRITERION. PLEASE CHECK THE VALUE OF THE AVERAGE FORCE DURING THE 
             CURRENT ITERATION TO VERIFY THAT THE FORCE IS SMALL ENOUGH TO BE 
             TREATED AS ZERO. IF NOT, PLEASE USE THE SOLUTION CONTROLS TO RESET 
             THE CRITERION FOR ZERO FORCE.
          TIME INCREMENT MAY NOW INCREASE TO    5.767E-03

 ITERATION SUMMARY FOR THE INCREMENT:   1 TOTAL ITERATIONS, OF WHICH
   0 ARE SEVERE DISCONTINUITY ITERATIONS AND  1 ARE EQUILIBRIUM ITERATIONS.

 TIME INCREMENT COMPLETED  3.844E-03,  FRACTION OF STEP COMPLETED  1.906E-03
 STEP TIME COMPLETED       1.143E-02,  TOTAL TIME COMPLETED        1.143E-02


  INCREMENT    12 STARTS. ATTEMPT NUMBER  1, TIME INCREMENT  5.767E-03

  USING THE DIRECT SOLVER WITH   6 PROCESSORS

               CONVERGENCE CHECKS FOR EQUILIBRIUM ITERATION     1


 AVERAGE FORCE                      8.115E-08   TIME AVG. FORCE       1.000E-02
 LARGEST RESIDUAL FORCE             4.769E-12   AT NODE       5579   DOF  1
 LARGEST INCREMENT OF DISP.         1.211E-07   AT NODE       5798   DOF  1
 LARGEST CORRECTION TO DISP.       -3.303E-13   AT NODE      10288   DOF  3
          THERE IS ZERO FORCE     EVERYWHERE
 

 ***WARNING: THERE IS ZERO FORCE EVERYWHERE IN THE MODEL BASED ON THE DEFAULT 
             CRITERION. PLEASE CHECK THE VALUE OF THE AVERAGE FORCE DURING THE 
             CURRENT ITERATION TO VERIFY THAT THE FORCE IS SMALL ENOUGH TO BE 
             TREATED AS ZERO. IF NOT, PLEASE USE THE SOLUTION CONTROLS TO RESET 
             THE CRITERION FOR ZERO FORCE.
          TIME INCREMENT MAY NOW INCREASE TO    8.650E-03

 ITERATION SUMMARY FOR THE INCREMENT:   1 TOTAL ITERATIONS, OF WHICH
   0 ARE SEVERE DISCONTINUITY ITERATIONS AND  1 ARE EQUILIBRIUM ITERATIONS.

 TIME INCREMENT COMPLETED  5.767E-03,  FRACTION OF STEP COMPLETED  2.867E-03
 STEP TIME COMPLETED       1.720E-02,  TOTAL TIME COMPLETED        1.720E-02


  INCREMENT    13 STARTS. ATTEMPT NUMBER  1, TIME INCREMENT  8.650E-03

  USING THE DIRECT SOLVER WITH   6 PROCESSORS

               CONVERGENCE CHECKS FOR EQUILIBRIUM ITERATION     1


 AVERAGE FORCE                      1.220E-07   TIME AVG. FORCE       1.220E-07
 LARGEST RESIDUAL FORCE             5.546E-12   AT NODE       5095   DOF  1
 LARGEST INCREMENT OF DISP.         1.816E-07   AT NODE       5314   DOF  1
 LARGEST CORRECTION TO DISP.       -7.431E-13   AT NODE      10426   DOF  3
          THE FORCE     EQUILIBRIUM EQUATIONS HAVE CONVERGED
          TIME INCREMENT MAY NOW INCREASE TO    1.297E-02

 ITERATION SUMMARY FOR THE INCREMENT:   1 TOTAL ITERATIONS, OF WHICH
   0 ARE SEVERE DISCONTINUITY ITERATIONS AND  1 ARE EQUILIBRIUM ITERATIONS.

 TIME INCREMENT COMPLETED  8.650E-03,  FRACTION OF STEP COMPLETED  4.308E-03
 STEP TIME COMPLETED       2.585E-02,  TOTAL TIME COMPLETED        2.585E-02


  INCREMENT    14 STARTS. ATTEMPT NUMBER  1, TIME INCREMENT  1.297E-02

  USING THE DIRECT SOLVER WITH   6 PROCESSORS

               CONVERGENCE CHECKS FOR EQUILIBRIUM ITERATION     1


 AVERAGE FORCE                      1.857E-07   TIME AVG. FORCE       1.538E-07
 LARGEST RESIDUAL FORCE            -3.655E-12   AT NODE       5554   DOF  1
 LARGEST INCREMENT OF DISP.         2.725E-07   AT NODE       5798   DOF  1
 LARGEST CORRECTION TO DISP.       -1.672E-12   AT NODE      10250   DOF  3
          THE FORCE     EQUILIBRIUM EQUATIONS HAVE CONVERGED
          TIME INCREMENT MAY NOW INCREASE TO    1.946E-02

 ITERATION SUMMARY FOR THE INCREMENT:   1 TOTAL ITERATIONS, OF WHICH
   0 ARE SEVERE DISCONTINUITY ITERATIONS AND  1 ARE EQUILIBRIUM ITERATIONS.

 TIME INCREMENT COMPLETED  1.297E-02,  FRACTION OF STEP COMPLETED  6.471E-03
 STEP TIME COMPLETED       3.882E-02,  TOTAL TIME COMPLETED        3.882E-02


  INCREMENT    15 STARTS. ATTEMPT NUMBER  1, TIME INCREMENT  1.946E-02

  USING THE DIRECT SOLVER WITH   6 PROCESSORS

               CONVERGENCE CHECKS FOR EQUILIBRIUM ITERATION     1


 AVERAGE FORCE                      2.781E-07   TIME AVG. FORCE       1.953E-07
 LARGEST RESIDUAL FORCE             1.633E-12   AT NODE       5048   DOF  1
 LARGEST INCREMENT OF DISP.         4.087E-07   AT NODE       5314   DOF  1
 LARGEST CORRECTION TO DISP.       -3.762E-12   AT NODE      10619   DOF  3
          THE FORCE     EQUILIBRIUM EQUATIONS HAVE CONVERGED
          TIME INCREMENT MAY NOW INCREASE TO    2.919E-02

 ITERATION SUMMARY FOR THE INCREMENT:   1 TOTAL ITERATIONS, OF WHICH
   0 ARE SEVERE DISCONTINUITY ITERATIONS AND  1 ARE EQUILIBRIUM ITERATIONS.

 TIME INCREMENT COMPLETED  1.946E-02,  FRACTION OF STEP COMPLETED  9.714E-03
 STEP TIME COMPLETED       5.829E-02,  TOTAL TIME COMPLETED        5.829E-02


  INCREMENT    16 STARTS. ATTEMPT NUMBER  1, TIME INCREMENT  2.919E-02

  USING THE DIRECT SOLVER WITH   6 PROCESSORS

               CONVERGENCE CHECKS FOR EQUILIBRIUM ITERATION     1


 AVERAGE FORCE                      4.167E-07   TIME AVG. FORCE       2.506E-07
 LARGEST RESIDUAL FORCE            -3.990E-12   AT NODE       5576   DOF  1
 LARGEST INCREMENT OF DISP.         6.131E-07   AT NODE       5314   DOF  1
 LARGEST CORRECTION TO DISP.       -8.464E-12   AT NODE      10184   DOF  3
          THE FORCE     EQUILIBRIUM EQUATIONS HAVE CONVERGED
          TIME INCREMENT MAY NOW INCREASE TO    4.379E-02

 ITERATION SUMMARY FOR THE INCREMENT:   1 TOTAL ITERATIONS, OF WHICH
   0 ARE SEVERE DISCONTINUITY ITERATIONS AND  1 ARE EQUILIBRIUM ITERATIONS.

 TIME INCREMENT COMPLETED  2.919E-02,  FRACTION OF STEP COMPLETED  1.458E-02
 STEP TIME COMPLETED       8.748E-02,  TOTAL TIME COMPLETED        8.748E-02


  INCREMENT    17 STARTS. ATTEMPT NUMBER  1, TIME INCREMENT  4.379E-02

  USING THE DIRECT SOLVER WITH   6 PROCESSORS

               CONVERGENCE CHECKS FOR EQUILIBRIUM ITERATION     1


 AVERAGE FORCE                      6.246E-07   TIME AVG. FORCE       3.254E-07
 LARGEST RESIDUAL FORCE             7.308E-12   AT NODE       5073   DOF  1
 LARGEST INCREMENT OF DISP.         9.196E-07   AT NODE       5314   DOF  1
 LARGEST CORRECTION TO DISP.       -1.904E-11   AT NODE      10380   DOF  3
          THE FORCE     EQUILIBRIUM EQUATIONS HAVE CONVERGED
          TIME INCREMENT MAY NOW INCREASE TO    6.568E-02

 ITERATION SUMMARY FOR THE INCREMENT:   1 TOTAL ITERATIONS, OF WHICH
   0 ARE SEVERE DISCONTINUITY ITERATIONS AND  1 ARE EQUILIBRIUM ITERATIONS.

 TIME INCREMENT COMPLETED  4.379E-02,  FRACTION OF STEP COMPLETED  2.188E-02
 STEP TIME COMPLETED       0.131    ,  TOTAL TIME COMPLETED        0.131    


  INCREMENT    18 STARTS. ATTEMPT NUMBER  1, TIME INCREMENT  6.568E-02

  USING THE DIRECT SOLVER WITH   6 PROCESSORS

               CONVERGENCE CHECKS FOR EQUILIBRIUM ITERATION     1


 AVERAGE FORCE                      9.356E-07   TIME AVG. FORCE       4.271E-07
 LARGEST RESIDUAL FORCE            -1.288E-11   AT NODE       5092   DOF  1
 LARGEST INCREMENT OF DISP.         1.379E-06   AT NODE       5314   DOF  1
 LARGEST CORRECTION TO DISP.       -4.285E-11   AT NODE      10378   DOF  3
          THE FORCE     EQUILIBRIUM EQUATIONS HAVE CONVERGED
          TIME INCREMENT MAY NOW INCREASE TO    9.853E-02

 ITERATION SUMMARY FOR THE INCREMENT:   1 TOTAL ITERATIONS, OF WHICH
   0 ARE SEVERE DISCONTINUITY ITERATIONS AND  1 ARE EQUILIBRIUM ITERATIONS.

 TIME INCREMENT COMPLETED  6.568E-02,  FRACTION OF STEP COMPLETED  3.283E-02
 STEP TIME COMPLETED       0.197    ,  TOTAL TIME COMPLETED        0.197    


  INCREMENT    19 STARTS. ATTEMPT NUMBER  1, TIME INCREMENT  9.853E-02

  USING THE DIRECT SOLVER WITH   6 PROCESSORS

               CONVERGENCE CHECKS FOR EQUILIBRIUM ITERATION     1


 AVERAGE FORCE                      1.403E-06   TIME AVG. FORCE       5.665E-07
 LARGEST RESIDUAL FORCE            -2.588E-11   AT NODE       5576   DOF  1
 LARGEST INCREMENT OF DISP.         2.069E-06   AT NODE       5798   DOF  1
 LARGEST CORRECTION TO DISP.       -9.641E-11   AT NODE      10427   DOF  3
          THE FORCE     EQUILIBRIUM EQUATIONS HAVE CONVERGED
          TIME INCREMENT MAY NOW INCREASE TO    0.148    

 ITERATION SUMMARY FOR THE INCREMENT:   1 TOTAL ITERATIONS, OF WHICH
   0 ARE SEVERE DISCONTINUITY ITERATIONS AND  1 ARE EQUILIBRIUM ITERATIONS.

 TIME INCREMENT COMPLETED  9.853E-02,  FRACTION OF STEP COMPLETED  4.925E-02
 STEP TIME COMPLETED       0.295    ,  TOTAL TIME COMPLETED        0.295    


  INCREMENT    20 STARTS. ATTEMPT NUMBER  1, TIME INCREMENT  0.148    

  USING THE DIRECT SOLVER WITH   6 PROCESSORS

               CONVERGENCE CHECKS FOR EQUILIBRIUM ITERATION     1


 AVERAGE FORCE                      2.103E-06   TIME AVG. FORCE       7.585E-07
 LARGEST RESIDUAL FORCE            -5.848E-11   AT NODE       5554   DOF  1
 LARGEST INCREMENT OF DISP.         3.104E-06   AT NODE       5314   DOF  1
 LARGEST CORRECTION TO DISP.       -2.169E-10   AT NODE      10382   DOF  3
          THE FORCE     EQUILIBRIUM EQUATIONS HAVE CONVERGED
          TIME INCREMENT MAY NOW INCREASE TO    0.222    

 ITERATION SUMMARY FOR THE INCREMENT:   1 TOTAL ITERATIONS, OF WHICH
   0 ARE SEVERE DISCONTINUITY ITERATIONS AND  1 ARE EQUILIBRIUM ITERATIONS.

 TIME INCREMENT COMPLETED  0.148    ,  FRACTION OF STEP COMPLETED  7.388E-02
 STEP TIME COMPLETED       0.443    ,  TOTAL TIME COMPLETED        0.443    


  INCREMENT    21 STARTS. ATTEMPT NUMBER  1, TIME INCREMENT  0.222    

  USING THE DIRECT SOLVER WITH   6 PROCESSORS

               CONVERGENCE CHECKS FOR EQUILIBRIUM ITERATION     1


 AVERAGE FORCE                      3.153E-06   TIME AVG. FORCE       1.025E-06
 LARGEST RESIDUAL FORCE             1.311E-10   AT NODE       5095   DOF  1
 LARGEST INCREMENT OF DISP.         4.655E-06   AT NODE       5314   DOF  1
 LARGEST CORRECTION TO DISP.       -4.881E-10   AT NODE      10453   DOF  3
          THE FORCE     EQUILIBRIUM EQUATIONS HAVE CONVERGED
          TIME INCREMENT MAY NOW INCREASE TO    0.333    

 ITERATION SUMMARY FOR THE INCREMENT:   1 TOTAL ITERATIONS, OF WHICH
   0 ARE SEVERE DISCONTINUITY ITERATIONS AND  1 ARE EQUILIBRIUM ITERATIONS.

 TIME INCREMENT COMPLETED  0.222    ,  FRACTION OF STEP COMPLETED  0.111    
 STEP TIME COMPLETED       0.665    ,  TOTAL TIME COMPLETED        0.665    


  INCREMENT    22 STARTS. ATTEMPT NUMBER  1, TIME INCREMENT  0.333    

  USING THE DIRECT SOLVER WITH   6 PROCESSORS

               CONVERGENCE CHECKS FOR EQUILIBRIUM ITERATION     1


 AVERAGE FORCE                      4.729E-06   TIME AVG. FORCE       1.395E-06
 LARGEST RESIDUAL FORCE             2.939E-10   AT NODE       5095   DOF  1
 LARGEST INCREMENT OF DISP.         6.983E-06   AT NODE       5314   DOF  1
 LARGEST CORRECTION TO DISP.       -1.098E-09   AT NODE      10229   DOF  3
          THE FORCE     EQUILIBRIUM EQUATIONS HAVE CONVERGED
          TIME INCREMENT MAY NOW INCREASE TO    0.499    

 ITERATION SUMMARY FOR THE INCREMENT:   1 TOTAL ITERATIONS, OF WHICH
   0 ARE SEVERE DISCONTINUITY ITERATIONS AND  1 ARE EQUILIBRIUM ITERATIONS.

 TIME INCREMENT COMPLETED  0.333    ,  FRACTION OF STEP COMPLETED  0.166    
 STEP TIME COMPLETED       0.997    ,  TOTAL TIME COMPLETED        0.997    


  INCREMENT    23 STARTS. ATTEMPT NUMBER  1, TIME INCREMENT  0.499    

  USING THE DIRECT SOLVER WITH   6 PROCESSORS

               CONVERGENCE CHECKS FOR EQUILIBRIUM ITERATION     1


 AVERAGE FORCE                      7.091E-06   TIME AVG. FORCE       1.913E-06
 LARGEST RESIDUAL FORCE            -6.611E-10   AT NODE       5070   DOF  1
 LARGEST INCREMENT OF DISP.         1.047E-05   AT NODE       5798   DOF  1
 LARGEST CORRECTION TO DISP.       -2.471E-09   AT NODE      10446   DOF  3
          THE FORCE     EQUILIBRIUM EQUATIONS HAVE CONVERGED
          TIME INCREMENT MAY NOW INCREASE TO    0.748    

 ITERATION SUMMARY FOR THE INCREMENT:   1 TOTAL ITERATIONS, OF WHICH
   0 ARE SEVERE DISCONTINUITY ITERATIONS AND  1 ARE EQUILIBRIUM ITERATIONS.

 TIME INCREMENT COMPLETED  0.499    ,  FRACTION OF STEP COMPLETED  0.249    
 STEP TIME COMPLETED        1.50    ,  TOTAL TIME COMPLETED         1.50    


  INCREMENT    24 STARTS. ATTEMPT NUMBER  1, TIME INCREMENT  0.748    

  USING THE DIRECT SOLVER WITH   6 PROCESSORS

               CONVERGENCE CHECKS FOR EQUILIBRIUM ITERATION     1


 AVERAGE FORCE                      1.063E-05   TIME AVG. FORCE       2.640E-06
 LARGEST RESIDUAL FORCE             1.485E-09   AT NODE       5579   DOF  1
 LARGEST INCREMENT OF DISP.         1.571E-05   AT NODE       5798   DOF  1
 LARGEST CORRECTION TO DISP.       -5.560E-09   AT NODE      10335   DOF  3
          THE FORCE     EQUILIBRIUM EQUATIONS HAVE CONVERGED
          TIME INCREMENT MAY NOW INCREASE TO     1.12    

 ITERATION SUMMARY FOR THE INCREMENT:   1 TOTAL ITERATIONS, OF WHICH
   0 ARE SEVERE DISCONTINUITY ITERATIONS AND  1 ARE EQUILIBRIUM ITERATIONS.

 TIME INCREMENT COMPLETED  0.748    ,  FRACTION OF STEP COMPLETED  0.374    
 STEP TIME COMPLETED        2.24    ,  TOTAL TIME COMPLETED         2.24    


  INCREMENT    25 STARTS. ATTEMPT NUMBER  1, TIME INCREMENT   1.12    

  USING THE DIRECT SOLVER WITH   6 PROCESSORS

               CONVERGENCE CHECKS FOR EQUILIBRIUM ITERATION     1


 AVERAGE FORCE                      1.589E-05   TIME AVG. FORCE       3.659E-06
 LARGEST RESIDUAL FORCE             3.914E-06   AT NODE      10165   DOF  3
 LARGEST INCREMENT OF DISP.         2.357E-05   AT NODE       5314   DOF  1
 LARGEST CORRECTION TO DISP.       -1.696E-08   AT NODE      10425   DOF  3
          FORCE     EQUILIBRIUM NOT ACHIEVED WITHIN TOLERANCE.

  USING THE DIRECT SOLVER WITH   6 PROCESSORS

               CONVERGENCE CHECKS FOR EQUILIBRIUM ITERATION     2


 AVERAGE FORCE                      1.589E-05   TIME AVG. FORCE       3.659E-06
 LARGEST RESIDUAL FORCE            -4.544E-07   AT NODE      10165   DOF  3
 LARGEST INCREMENT OF DISP.         2.357E-05   AT NODE       5798   DOF  1
 LARGEST CORRECTION TO DISP.        1.957E-09   AT NODE      10425   DOF  3
          FORCE     EQUILIBRIUM NOT ACHIEVED WITHIN TOLERANCE.

  USING THE DIRECT SOLVER WITH   6 PROCESSORS

               CONVERGENCE CHECKS FOR EQUILIBRIUM ITERATION     3


 AVERAGE FORCE                      1.589E-05   TIME AVG. FORCE       3.659E-06
 LARGEST RESIDUAL FORCE             5.226E-08   AT NODE      10165   DOF  3
 LARGEST INCREMENT OF DISP.         2.357E-05   AT NODE       5798   DOF  1
 LARGEST CORRECTION TO DISP.       -2.262E-10   AT NODE      10425   DOF  3
          FORCE     EQUILIBRIUM NOT ACHIEVED WITHIN TOLERANCE.

  USING THE DIRECT SOLVER WITH   6 PROCESSORS

               CONVERGENCE CHECKS FOR EQUILIBRIUM ITERATION     4


 AVERAGE FORCE                      1.589E-05   TIME AVG. FORCE       3.659E-06
 LARGEST RESIDUAL FORCE            -6.010E-09   AT NODE      10165   DOF  3
 LARGEST INCREMENT OF DISP.         2.357E-05   AT NODE       5314   DOF  1
 LARGEST CORRECTION TO DISP.        3.561E-11   AT NODE       5093   DOF  3
          THE FORCE     EQUILIBRIUM EQUATIONS HAVE CONVERGED
          TIME INCREMENT MAY NOW INCREASE TO     1.68    

 ITERATION SUMMARY FOR THE INCREMENT:   4 TOTAL ITERATIONS, OF WHICH
   0 ARE SEVERE DISCONTINUITY ITERATIONS AND  4 ARE EQUILIBRIUM ITERATIONS.

 TIME INCREMENT COMPLETED   1.12    ,  FRACTION OF STEP COMPLETED  0.561    
 STEP TIME COMPLETED        3.37    ,  TOTAL TIME COMPLETED         3.37    


  INCREMENT    26 STARTS. ATTEMPT NUMBER  1, TIME INCREMENT   1.68    

  USING THE DIRECT SOLVER WITH   6 PROCESSORS

               CONVERGENCE CHECKS FOR EQUILIBRIUM ITERATION     1


 AVERAGE FORCE                      2.367E-05   TIME AVG. FORCE       5.089E-06
 LARGEST RESIDUAL FORCE             1.270E-05   AT NODE      10165   DOF  3
 LARGEST INCREMENT OF DISP.         3.535E-05   AT NODE       5314   DOF  1
 LARGEST CORRECTION TO DISP.       -3.202E-08   AT NODE      10268   DOF  3
          FORCE     EQUILIBRIUM NOT ACHIEVED WITHIN TOLERANCE.

  USING THE DIRECT SOLVER WITH   6 PROCESSORS

               CONVERGENCE CHECKS FOR EQUILIBRIUM ITERATION     2


 AVERAGE FORCE                      2.373E-05   TIME AVG. FORCE       5.093E-06
 LARGEST RESIDUAL FORCE            -2.751E-06   AT NODE      10165   DOF  3
 LARGEST INCREMENT OF DISP.         3.535E-05   AT NODE       5798   DOF  1
 LARGEST CORRECTION TO DISP.        6.939E-09   AT NODE      10205   DOF  3
          FORCE     EQUILIBRIUM NOT ACHIEVED WITHIN TOLERANCE.

  USING THE DIRECT SOLVER WITH   6 PROCESSORS

               CONVERGENCE CHECKS FOR EQUILIBRIUM ITERATION     3


 AVERAGE FORCE                      2.372E-05   TIME AVG. FORCE       5.092E-06
 LARGEST RESIDUAL FORCE             5.962E-07   AT NODE      10165   DOF  3
 LARGEST INCREMENT OF DISP.         3.535E-05   AT NODE       5314   DOF  1
 LARGEST CORRECTION TO DISP.       -1.504E-09   AT NODE      10205   DOF  3
          FORCE     EQUILIBRIUM NOT ACHIEVED WITHIN TOLERANCE.

  USING THE DIRECT SOLVER WITH   6 PROCESSORS

               CONVERGENCE CHECKS FOR EQUILIBRIUM ITERATION     4


 AVERAGE FORCE                      2.372E-05   TIME AVG. FORCE       5.092E-06
 LARGEST RESIDUAL FORCE            -1.292E-07   AT NODE      10165   DOF  3
 LARGEST INCREMENT OF DISP.         3.535E-05   AT NODE       5798   DOF  1
 LARGEST CORRECTION TO DISP.        5.222E-10   AT NODE       5534   DOF  3
          FORCE     EQUILIBRIUM NOT ACHIEVED WITHIN TOLERANCE.

  USING THE DIRECT SOLVER WITH   6 PROCESSORS

               CONVERGENCE CHECKS FOR EQUILIBRIUM ITERATION     5


 AVERAGE FORCE                      2.371E-05   TIME AVG. FORCE       5.091E-06
 LARGEST RESIDUAL FORCE             2.799E-08   AT NODE      10165   DOF  3
 LARGEST INCREMENT OF DISP.         3.535E-05   AT NODE       5798   DOF  1
 LARGEST CORRECTION TO DISP.       -3.605E-10   AT NODE       5070   DOF  3
          FORCE     EQUILIBRIUM NOT ACHIEVED WITHIN TOLERANCE.

  USING THE DIRECT SOLVER WITH   6 PROCESSORS

               CONVERGENCE CHECKS FOR EQUILIBRIUM ITERATION     6


 AVERAGE FORCE                      2.373E-05   TIME AVG. FORCE       5.093E-06
 LARGEST RESIDUAL FORCE            -6.446E-09   AT NODE       4172   DOF  3
 LARGEST INCREMENT OF DISP.         3.535E-05   AT NODE       5798   DOF  1
 LARGEST CORRECTION TO DISP.        3.137E-10   AT NODE       5095   DOF  3
          THE FORCE     EQUILIBRIUM EQUATIONS HAVE CONVERGED

 ITERATION SUMMARY FOR THE INCREMENT:   6 TOTAL ITERATIONS, OF WHICH
   0 ARE SEVERE DISCONTINUITY ITERATIONS AND  6 ARE EQUILIBRIUM ITERATIONS.

 TIME INCREMENT COMPLETED   1.68    ,  FRACTION OF STEP COMPLETED  0.842    
 STEP TIME COMPLETED        5.05    ,  TOTAL TIME COMPLETED         5.05    


  INCREMENT    27 STARTS. ATTEMPT NUMBER  1, TIME INCREMENT  0.950    

  USING THE DIRECT SOLVER WITH   6 PROCESSORS

               CONVERGENCE CHECKS FOR EQUILIBRIUM ITERATION     1


 AVERAGE FORCE                      2.815E-05   TIME AVG. FORCE       6.630E-06
 LARGEST RESIDUAL FORCE             5.402E-06   AT NODE      10165   DOF  3
 LARGEST INCREMENT OF DISP.         1.995E-05   AT NODE       5312   DOF  1
 LARGEST CORRECTION TO DISP.       -1.745E-08   AT NODE      10447   DOF  3
          FORCE     EQUILIBRIUM NOT ACHIEVED WITHIN TOLERANCE.

  USING THE DIRECT SOLVER WITH   6 PROCESSORS

               CONVERGENCE CHECKS FOR EQUILIBRIUM ITERATION     2


 AVERAGE FORCE                      2.815E-05   TIME AVG. FORCE       6.630E-06
 LARGEST RESIDUAL FORCE            -8.722E-07   AT NODE      10165   DOF  3
 LARGEST INCREMENT OF DISP.         1.995E-05   AT NODE       5314   DOF  1
 LARGEST CORRECTION TO DISP.        2.817E-09   AT NODE      10558   DOF  3
          FORCE     EQUILIBRIUM NOT ACHIEVED WITHIN TOLERANCE.

  USING THE DIRECT SOLVER WITH   6 PROCESSORS

               CONVERGENCE CHECKS FOR EQUILIBRIUM ITERATION     3


 AVERAGE FORCE                      2.815E-05   TIME AVG. FORCE       6.630E-06
 LARGEST RESIDUAL FORCE             1.408E-07   AT NODE      10165   DOF  3
 LARGEST INCREMENT OF DISP.         1.995E-05   AT NODE       5314   DOF  1
 LARGEST CORRECTION TO DISP.       -4.985E-10   AT NODE      10129   DOF  3
          FORCE     EQUILIBRIUM NOT ACHIEVED WITHIN TOLERANCE.

  USING THE DIRECT SOLVER WITH   6 PROCESSORS

               CONVERGENCE CHECKS FOR EQUILIBRIUM ITERATION     4


 AVERAGE FORCE                      2.815E-05   TIME AVG. FORCE       6.630E-06
 LARGEST RESIDUAL FORCE            -2.274E-08   AT NODE      10165   DOF  3
 LARGEST INCREMENT OF DISP.         1.995E-05   AT NODE       5314   DOF  1
 LARGEST CORRECTION TO DISP.        1.399E-10   AT NODE       6482   DOF  3
          THE FORCE     EQUILIBRIUM EQUATIONS HAVE CONVERGED

 ITERATION SUMMARY FOR THE INCREMENT:   4 TOTAL ITERATIONS, OF WHICH
   0 ARE SEVERE DISCONTINUITY ITERATIONS AND  4 ARE EQUILIBRIUM ITERATIONS.

 TIME INCREMENT COMPLETED  0.950    ,  FRACTION OF STEP COMPLETED   1.00    
 STEP TIME COMPLETED        6.00    ,  TOTAL TIME COMPLETED         6.00    
1

   Abaqus 6.9-1                                  Date 13-Oct-2015   Time 00:30:04
   For use at GEORGIA INSTITUTE OF TECHNOLOGY under license from Dassault Systemes or its subsidiary.

                                                                                 
                                                                                 
 STEP    2     INCREMENT     1     STEP TIME    0.00    


                        S T E P       2     S T A T I C   A N A L Y S I S


                                                                                          

     AUTOMATIC TIME CONTROL WITH -
          A SUGGESTED INITIAL TIME INCREMENT OF                1.000E-04
          AND A TOTAL TIME PERIOD OF                           1.000E-02
          THE MINIMUM TIME INCREMENT ALLOWED IS                1.000E-09
          THE MAXIMUM TIME INCREMENT ALLOWED IS                1.000E-02

     LINEAR EQUATION SOLVER TYPE         DIRECT SPARSE

 CONVERGENCE TOLERANCE PARAMETERS FOR FORCE    
     CRITERION FOR RESIDUAL FORCE     FOR A NONLINEAR PROBLEM          5.000E-03
     CRITERION FOR DISP.    CORRECTION IN A NONLINEAR PROBLEM          1.000E-02
     INIT. VALUE OF TIME AVG. FORCE     IS TIME AVG. FORCE     IN PREVIOUS STEP
     AVERAGE FORCE     IS TIME AVERAGE FORCE    
     ALTERNATE CRIT. FOR RESIDUAL FORCE     FOR A NONLINEAR PROBLEM    2.000E-02
     CRITERION FOR ZERO FORCE     RELATIVE TO TIME AVRG. FORCE         1.000E-05
     CRITERION FOR RESIDUAL FORCE     WHEN THERE IS ZERO FLUX          1.000E-05
     CRITERION FOR DISP.    CORRECTION WHEN THERE IS ZERO FLUX         1.000E-03
     CRITERION FOR RESIDUAL FORCE     FOR A LINEAR INCREMENT           1.000E-08
     FIELD CONVERSION RATIO                                             1.00    
     CRITERION FOR ZERO FORCE     REL. TO TIME AVRG. MAX. FORCE        1.000E-05
     CRITERION FOR ZERO DISP.    RELATIVE TO CHARACTERISTIC LENGTH     1.000E-08

     VOLUMETRIC STRAIN COMPATIBILITY TOLERANCE FOR HYBRID SOLIDS       1.000E-05
     AXIAL STRAIN COMPATIBILITY TOLERANCE FOR HYBRID BEAMS             1.000E-05
     TRANS. SHEAR STRAIN COMPATIBILITY TOLERANCE FOR HYBRID BEAMS      1.000E-05
     SOFT CONTACT CONSTRAINT COMPATIBILITY TOLERANCE FOR P>P0          5.000E-03
     SOFT CONTACT CONSTRAINT COMPATIBILITY TOLERANCE FOR P=0.0         0.100    
     CONTACT FORCE ERROR TOLERANCE FOR CONVERT SDI=YES                 1.00    
     DISPLACEMENT COMPATIBILITY TOLERANCE FOR DCOUP ELEMENTS           1.000E-05
     ROTATION COMPATIBILITY TOLERANCE FOR DCOUP ELEMENTS               1.000E-05

 EQUILIBRIUM WILL BE CHECKED FOR SEVERE DISCONTINUITY ITERATIONS

 TIME INCREMENTATION CONTROL PARAMETERS:
 *** FIRST EQUILIBRIUM ITERATION FOR CONSECUTIVE DIVERGENCE CHECK             20
 *** EQUILIBRIUM ITERATION AT WHICH LOG. CONVERGENCE RATE CHECK BEGINS        20
     EQUILIBRIUM ITERATION AFTER WHICH ALTERNATE RESIDUAL IS USED              9
 *** MAXIMUM EQUILIBRIUM ITERATIONS ALLOWED                                   15
 *** EQUILIBRIUM ITERATION COUNT FOR CUT-BACK IN NEXT INCREMENT               15
 *** MAXIMUM EQUILIB. ITERS IN TWO INCREMENTS FOR TIME INCREMENT INCREASE     15
     MAXIMUM ITERATIONS FOR SEVERE DISCONTINUITIES                            50
 *** MAXIMUM CUT-BACKS ALLOWED IN AN INCREMENT                                30
     MAXIMUM DISCON. ITERS IN TWO INCREMENTS FOR TIME INCREMENT INCREASE      50
     MAXIMUM CONTACT AUGMENTATIONS FOR *SURFACE BEHAVIOR,AUGMENTED LAGRANGE    6
 *** CUT-BACK FACTOR AFTER DIVERGENCE                                 0.5000    
     CUT-BACK FACTOR FOR TOO SLOW CONVERGENCE                         0.5000    
     CUT-BACK FACTOR AFTER TOO MANY EQUILIBRIUM ITERATIONS            0.7500    
     CUT-BACK FACTOR AFTER TOO MANY SEVERE DISCONTINUITY ITERATIONS   0.2500    
     CUT-BACK FACTOR AFTER PROBLEMS IN ELEMENT ASSEMBLY               0.2500    
     INCREASE FACTOR AFTER TWO INCREMENTS THAT CONVERGE QUICKLY        1.500    
     MAX. TIME INCREMENT INCREASE FACTOR ALLOWED                       1.500    
     MAX. TIME INCREMENT INCREASE FACTOR ALLOWED (DYNAMICS)            1.250    
     MAX. TIME INCREMENT INCREASE FACTOR ALLOWED (DIFFUSION)           2.000    
     MINIMUM TIME INCREMENT RATIO FOR EXTRAPOLATION TO OCCUR          0.1000    
     MAX. RATIO OF TIME INCREMENT TO STABILITY LIMIT                   1.000    
     FRACTION OF STABILITY LIMIT FOR NEW TIME INCREMENT               0.9500    
     TIME INCREMENT INCREASE FACTOR BEFORE A TIME POINT                1.000    

 *** INDICATES USE OF NON-DEFAULT TIME INCREMENTATION CONTROL PARAMETER
     SELECTED WITH *CONTROLS
     AUTOMATIC TOLERANCES FOR OVERCLOSURE AND SEPARATION 
     PRESSURE ARE SUPPRESSED
     GLOBAL STABILIZATION CONTROL IS NOT USED
     FRICTION IS INCLUDED IN INCREMENT THAT THE CONTACT POINT CLOSES

          PRINT OF INCREMENT NUMBER, TIME, ETC., EVERY    1  INCREMENTS

     THE MAXIMUM NUMBER OF INCREMENTS IN THIS STEP IS                   10000

          LARGE DISPLACEMENT THEORY WILL BE USED

          UNSYMMETRIC MATRIX STORAGE AND SOLUTION WILL BE USED

     LINEAR EXTRAPOLATION WILL BE USED

     CHARACTERISTIC ELEMENT LENGTH     1.000E-03

     DETAILED OUTPUT OF DIAGNOSTICS TO DATABASE REQUESTED

     PRINT OF INCREMENT NUMBER, TIME, ETC., TO THE MESSAGE FILE EVERY     1  INCREMENTS

     ELEMENT OPERATIONS WILL BE CARRIED OUT IN PARALLEL USING   6 PROCESSORS

     COLLECTING STEP CONSTRAINT INFORMATION FOR OVERCONSTRAINT CHECKS


  INCREMENT     1 STARTS. ATTEMPT NUMBER  1, TIME INCREMENT  1.000E-04
 
     INITIAL ELEMENT LOAD BALANCE
        COMPUTE NODE   1   PROCESS    NUMBER OF ELEMENTS
                              1            1581
                              2            1536
                              3            1536
                              4            1536
                              5            1536
                              6            1536

  USING THE DIRECT SOLVER WITH   6 PROCESSORS

               CONVERGENCE CHECKS FOR EQUILIBRIUM ITERATION     1


 AVERAGE FORCE                      2.820E-05   TIME AVG. FORCE       2.820E-05
 LARGEST RESIDUAL FORCE             9.239E-11   AT NODE       5093   DOF  2
 LARGEST INCREMENT OF DISP.        -4.095E-11   AT NODE       6482   DOF  3
 LARGEST CORRECTION TO DISP.       -4.095E-11   AT NODE       6482   DOF  3
 ESTIMATE OF DISP.    CORRECTION    1.637E-13
 FORCE     EQUILIB. ACCEPTED BASED ON SMALL RESIDUAL AND ESTIMATED CORRECTION

 ITERATION SUMMARY FOR THE INCREMENT:   1 TOTAL ITERATIONS, OF WHICH
   0 ARE SEVERE DISCONTINUITY ITERATIONS AND  1 ARE EQUILIBRIUM ITERATIONS.

 TIME INCREMENT COMPLETED  1.000E-04,  FRACTION OF STEP COMPLETED  1.000E-02
 STEP TIME COMPLETED       1.000E-04,  TOTAL TIME COMPLETED         6.00    


  INCREMENT     2 STARTS. ATTEMPT NUMBER  1, TIME INCREMENT  1.000E-04

  USING THE DIRECT SOLVER WITH   6 PROCESSORS

               CONVERGENCE CHECKS FOR EQUILIBRIUM ITERATION     1


 AVERAGE FORCE                      2.862E-05   TIME AVG. FORCE       2.841E-05
 LARGEST RESIDUAL FORCE            -5.340E-11   AT NODE       5577   DOF  2
 LARGEST INCREMENT OF DISP.        -2.389E-12   AT NODE       6041   DOF  2
 LARGEST CORRECTION TO DISP.        3.865E-11   AT NODE       6482   DOF  3
          FORCE     EQUILIB. ACCEPTED BASED ON SMALL RESIDUAL AND SMALL MAGNITUDE
           OF THE INCREMENT OF DISPLACEMENT
          TIME INCREMENT MAY NOW INCREASE TO    1.500E-04

 ITERATION SUMMARY FOR THE INCREMENT:   1 TOTAL ITERATIONS, OF WHICH
   0 ARE SEVERE DISCONTINUITY ITERATIONS AND  1 ARE EQUILIBRIUM ITERATIONS.

 TIME INCREMENT COMPLETED  1.000E-04,  FRACTION OF STEP COMPLETED  2.000E-02
 STEP TIME COMPLETED       2.000E-04,  TOTAL TIME COMPLETED         6.00    


  INCREMENT     3 STARTS. ATTEMPT NUMBER  1, TIME INCREMENT  1.500E-04

  USING THE DIRECT SOLVER WITH   6 PROCESSORS

               CONVERGENCE CHECKS FOR EQUILIBRIUM ITERATION     1


 AVERAGE FORCE                      2.862E-05   TIME AVG. FORCE       2.848E-05
 LARGEST RESIDUAL FORCE             5.165E-11   AT NODE       5072   DOF  2
 LARGEST INCREMENT OF DISP.        -8.153E-13   AT NODE       6592   DOF  3
 LARGEST CORRECTION TO DISP.       -4.153E-12   AT NODE       6592   DOF  3
          FORCE     EQUILIB. ACCEPTED BASED ON SMALL RESIDUAL AND SMALL MAGNITUDE
           OF THE INCREMENT OF DISPLACEMENT
          TIME INCREMENT MAY NOW INCREASE TO    2.250E-04

 ITERATION SUMMARY FOR THE INCREMENT:   1 TOTAL ITERATIONS, OF WHICH
   0 ARE SEVERE DISCONTINUITY ITERATIONS AND  1 ARE EQUILIBRIUM ITERATIONS.

 TIME INCREMENT COMPLETED  1.500E-04,  FRACTION OF STEP COMPLETED  3.500E-02
 STEP TIME COMPLETED       3.500E-04,  TOTAL TIME COMPLETED         6.00    


  INCREMENT     4 STARTS. ATTEMPT NUMBER  1, TIME INCREMENT  2.250E-04

  USING THE DIRECT SOLVER WITH   6 PROCESSORS

               CONVERGENCE CHECKS FOR EQUILIBRIUM ITERATION     1


 AVERAGE FORCE                      2.862E-05   TIME AVG. FORCE       2.851E-05
 LARGEST RESIDUAL FORCE             3.472E-11   AT NODE       5092   DOF  2
 LARGEST INCREMENT OF DISP.        -5.419E-13   AT NODE       6477   DOF  3
 LARGEST CORRECTION TO DISP.        1.018E-12   AT NODE        287   DOF  1
          FORCE     EQUILIB. ACCEPTED BASED ON SMALL RESIDUAL AND SMALL MAGNITUDE
           OF THE INCREMENT OF DISPLACEMENT
          TIME INCREMENT MAY NOW INCREASE TO    3.375E-04

 ITERATION SUMMARY FOR THE INCREMENT:   1 TOTAL ITERATIONS, OF WHICH
   0 ARE SEVERE DISCONTINUITY ITERATIONS AND  1 ARE EQUILIBRIUM ITERATIONS.

 TIME INCREMENT COMPLETED  2.250E-04,  FRACTION OF STEP COMPLETED  5.750E-02
 STEP TIME COMPLETED       5.750E-04,  TOTAL TIME COMPLETED         6.00    


  INCREMENT     5 STARTS. ATTEMPT NUMBER  1, TIME INCREMENT  3.375E-04

  USING THE DIRECT SOLVER WITH   6 PROCESSORS

               CONVERGENCE CHECKS FOR EQUILIBRIUM ITERATION     1


 AVERAGE FORCE                      2.862E-05   TIME AVG. FORCE       2.853E-05
 LARGEST RESIDUAL FORCE             1.532E-11   AT NODE        263   DOF  2
 LARGEST INCREMENT OF DISP.        -6.441E-13   AT NODE       5072   DOF  3
 LARGEST CORRECTION TO DISP.       -5.893E-13   AT NODE       5051   DOF  2
          FORCE     EQUILIB. ACCEPTED BASED ON SMALL RESIDUAL AND SMALL MAGNITUDE
           OF THE INCREMENT OF DISPLACEMENT
          TIME INCREMENT MAY NOW INCREASE TO    5.062E-04

 ITERATION SUMMARY FOR THE INCREMENT:   1 TOTAL ITERATIONS, OF WHICH
   0 ARE SEVERE DISCONTINUITY ITERATIONS AND  1 ARE EQUILIBRIUM ITERATIONS.

 TIME INCREMENT COMPLETED  3.375E-04,  FRACTION OF STEP COMPLETED  9.125E-02
 STEP TIME COMPLETED       9.125E-04,  TOTAL TIME COMPLETED         6.00    


  INCREMENT     6 STARTS. ATTEMPT NUMBER  1, TIME INCREMENT  5.062E-04

  USING THE DIRECT SOLVER WITH   6 PROCESSORS

               CONVERGENCE CHECKS FOR EQUILIBRIUM ITERATION     1


 AVERAGE FORCE                      2.862E-05   TIME AVG. FORCE       2.855E-05
 LARGEST RESIDUAL FORCE            -7.155E-12   AT NODE        308   DOF  1
 LARGEST INCREMENT OF DISP.         9.593E-13   AT NODE       5071   DOF  2
 LARGEST CORRECTION TO DISP.        3.346E-13   AT NODE       6060   DOF  2
          FORCE     EQUILIB. ACCEPTED BASED ON SMALL RESIDUAL AND SMALL MAGNITUDE
           OF THE INCREMENT OF DISPLACEMENT
          TIME INCREMENT MAY NOW INCREASE TO    7.594E-04

 ITERATION SUMMARY FOR THE INCREMENT:   1 TOTAL ITERATIONS, OF WHICH
   0 ARE SEVERE DISCONTINUITY ITERATIONS AND  1 ARE EQUILIBRIUM ITERATIONS.

 TIME INCREMENT COMPLETED  5.062E-04,  FRACTION OF STEP COMPLETED  0.142    
 STEP TIME COMPLETED       1.419E-03,  TOTAL TIME COMPLETED         6.00    


  INCREMENT     7 STARTS. ATTEMPT NUMBER  1, TIME INCREMENT  7.594E-04

  USING THE DIRECT SOLVER WITH   6 PROCESSORS

               CONVERGENCE CHECKS FOR EQUILIBRIUM ITERATION     1


 AVERAGE FORCE                      2.862E-05   TIME AVG. FORCE       2.856E-05
 LARGEST RESIDUAL FORCE             1.440E-11   AT NODE       5073   DOF  2
 LARGEST INCREMENT OF DISP.        -1.358E-12   AT NODE       5094   DOF  2
 LARGEST CORRECTION TO DISP.       -3.897E-13   AT NODE       5092   DOF  2
          FORCE     EQUILIB. ACCEPTED BASED ON SMALL RESIDUAL AND SMALL MAGNITUDE
           OF THE INCREMENT OF DISPLACEMENT
          TIME INCREMENT MAY NOW INCREASE TO    1.139E-03

 ITERATION SUMMARY FOR THE INCREMENT:   1 TOTAL ITERATIONS, OF WHICH
   0 ARE SEVERE DISCONTINUITY ITERATIONS AND  1 ARE EQUILIBRIUM ITERATIONS.

 TIME INCREMENT COMPLETED  7.594E-04,  FRACTION OF STEP COMPLETED  0.218    
 STEP TIME COMPLETED       2.178E-03,  TOTAL TIME COMPLETED         6.00    


  INCREMENT     8 STARTS. ATTEMPT NUMBER  1, TIME INCREMENT  1.139E-03

  USING THE DIRECT SOLVER WITH   6 PROCESSORS

               CONVERGENCE CHECKS FOR EQUILIBRIUM ITERATION     1


 AVERAGE FORCE                      2.862E-05   TIME AVG. FORCE       2.857E-05
 LARGEST RESIDUAL FORCE            -1.290E-11   AT NODE        263   DOF  2
 LARGEST INCREMENT OF DISP.         1.892E-12   AT NODE       5555   DOF  2
 LARGEST CORRECTION TO DISP.        3.412E-13   AT NODE       4590   DOF  2
          FORCE     EQUILIB. ACCEPTED BASED ON SMALL RESIDUAL AND SMALL MAGNITUDE
           OF THE INCREMENT OF DISPLACEMENT
          TIME INCREMENT MAY NOW INCREASE TO    1.709E-03

 ITERATION SUMMARY FOR THE INCREMENT:   1 TOTAL ITERATIONS, OF WHICH
   0 ARE SEVERE DISCONTINUITY ITERATIONS AND  1 ARE EQUILIBRIUM ITERATIONS.

 TIME INCREMENT COMPLETED  1.139E-03,  FRACTION OF STEP COMPLETED  0.332    
 STEP TIME COMPLETED       3.317E-03,  TOTAL TIME COMPLETED         6.00    


  INCREMENT     9 STARTS. ATTEMPT NUMBER  1, TIME INCREMENT  1.709E-03

  USING THE DIRECT SOLVER WITH   6 PROCESSORS

               CONVERGENCE CHECKS FOR EQUILIBRIUM ITERATION     1


 AVERAGE FORCE                      2.862E-05   TIME AVG. FORCE       2.857E-05
 LARGEST RESIDUAL FORCE            -7.717E-12   AT NODE        263   DOF  2
 LARGEST INCREMENT OF DISP.        -2.686E-12   AT NODE       5578   DOF  1
 LARGEST CORRECTION TO DISP.        2.462E-13   AT NODE      10134   DOF  3
          FORCE     EQUILIB. ACCEPTED BASED ON SMALL RESIDUAL AND SMALL MAGNITUDE
           OF THE INCREMENT OF DISPLACEMENT
          TIME INCREMENT MAY NOW INCREASE TO    2.563E-03

 ITERATION SUMMARY FOR THE INCREMENT:   1 TOTAL ITERATIONS, OF WHICH
   0 ARE SEVERE DISCONTINUITY ITERATIONS AND  1 ARE EQUILIBRIUM ITERATIONS.

 TIME INCREMENT COMPLETED  1.709E-03,  FRACTION OF STEP COMPLETED  0.503    
 STEP TIME COMPLETED       5.026E-03,  TOTAL TIME COMPLETED         6.01    


  INCREMENT    10 STARTS. ATTEMPT NUMBER  1, TIME INCREMENT  2.563E-03

  USING THE DIRECT SOLVER WITH   6 PROCESSORS

               CONVERGENCE CHECKS FOR EQUILIBRIUM ITERATION     1


 AVERAGE FORCE                      2.862E-05   TIME AVG. FORCE       2.858E-05
 LARGEST RESIDUAL FORCE            -4.508E-12   AT NODE       5093   DOF  2
 LARGEST INCREMENT OF DISP.        -3.773E-12   AT NODE       5094   DOF  1
 LARGEST CORRECTION TO DISP.        4.614E-13   AT NODE      10381   DOF  3
          FORCE     EQUILIB. ACCEPTED BASED ON SMALL RESIDUAL AND SMALL MAGNITUDE
           OF THE INCREMENT OF DISPLACEMENT

 ITERATION SUMMARY FOR THE INCREMENT:   1 TOTAL ITERATIONS, OF WHICH
   0 ARE SEVERE DISCONTINUITY ITERATIONS AND  1 ARE EQUILIBRIUM ITERATIONS.

 TIME INCREMENT COMPLETED  2.563E-03,  FRACTION OF STEP COMPLETED  0.759    
 STEP TIME COMPLETED       7.589E-03,  TOTAL TIME COMPLETED         6.01    


  INCREMENT    11 STARTS. ATTEMPT NUMBER  1, TIME INCREMENT  2.411E-03

  USING THE DIRECT SOLVER WITH   6 PROCESSORS

               CONVERGENCE CHECKS FOR EQUILIBRIUM ITERATION     1


 AVERAGE FORCE                      2.862E-05   TIME AVG. FORCE       2.858E-05
 LARGEST RESIDUAL FORCE             6.331E-12   AT NODE       5092   DOF  2
 LARGEST INCREMENT OF DISP.         3.321E-12   AT NODE       5071   DOF  1
 LARGEST CORRECTION TO DISP.        3.511E-13   AT NODE      10599   DOF  3
          FORCE     EQUILIB. ACCEPTED BASED ON SMALL RESIDUAL AND SMALL MAGNITUDE
           OF THE INCREMENT OF DISPLACEMENT

 ITERATION SUMMARY FOR THE INCREMENT:   1 TOTAL ITERATIONS, OF WHICH
   0 ARE SEVERE DISCONTINUITY ITERATIONS AND  1 ARE EQUILIBRIUM ITERATIONS.

 TIME INCREMENT COMPLETED  2.411E-03,  FRACTION OF STEP COMPLETED   1.00    
 STEP TIME COMPLETED       1.000E-02,  TOTAL TIME COMPLETED         6.01    


          THE ANALYSIS HAS BEEN COMPLETED



     ANALYSIS SUMMARY:
     TOTAL OF         38  INCREMENTS
                       0  CUTBACKS IN AUTOMATIC INCREMENTATION
                      49  ITERATIONS INCLUDING CONTACT ITERATIONS IF PRESENT
                      49  PASSES THROUGH THE EQUATION SOLVER OF WHICH 
                      49  INVOLVE MATRIX DECOMPOSITION, INCLUDING
                       0  DECOMPOSITION(S) OF THE MASS MATRIX
                       1  REORDERING OF EQUATIONS TO MINIMIZE WAVEFRONT
                       0  ADDITIONAL RESIDUAL EVALUATIONS FOR LINE SEARCHES
                       0  ADDITIONAL OPERATOR EVALUATIONS FOR LINE SEARCHES
                    9279  WARNING MESSAGES DURING USER INPUT PROCESSING
                      12  WARNING MESSAGES DURING ANALYSIS
                       0  ANALYSIS WARNINGS ARE NUMERICAL PROBLEM MESSAGES
                       0  ANALYSIS WARNINGS ARE NEGATIVE EIGENVALUE MESSAGES
                       0  ERROR MESSAGES



     JOB TIME SUMMARY
       USER TIME (SEC)      =   2826.9    
       SYSTEM TIME (SEC)    =   38.110    
       TOTAL CPU TIME (SEC) =   2865.0    
       WALLCLOCK TIME (SEC) =        544
