1

   Abaqus 6.9-1                                  Date 13-Oct-2015   Time 01:03:07
   For use at GEORGIA INSTITUTE OF TECHNOLOGY under license from Dassault Systemes or its subsidiary.

                                                                                 
                                                                                 
 STEP    1     INCREMENT     1     STEP TIME    0.00    


                        S T E P       1     S T A T I C   A N A L Y S I S


                                                                                          

     AUTOMATIC TIME CONTROL WITH -
          A SUGGESTED INITIAL TIME INCREMENT OF                1.000E-04
          AND A TOTAL TIME PERIOD OF                            4.00    
          THE MINIMUM TIME INCREMENT ALLOWED IS                1.000E-09
          THE MAXIMUM TIME INCREMENT ALLOWED IS                 4.00    

     LINEAR EQUATION SOLVER TYPE         DIRECT SPARSE

 CONVERGENCE TOLERANCE PARAMETERS FOR FORCE    
     CRITERION FOR RESIDUAL FORCE     FOR A NONLINEAR PROBLEM          5.000E-03
     CRITERION FOR DISP.    CORRECTION IN A NONLINEAR PROBLEM          1.000E-02
     INITIAL VALUE OF TIME AVERAGE FORCE                               1.000E-02
     AVERAGE FORCE     IS TIME AVERAGE FORCE    
     ALTERNATE CRIT. FOR RESIDUAL FORCE     FOR A NONLINEAR PROBLEM    2.000E-02
     CRITERION FOR ZERO FORCE     RELATIVE TO TIME AVRG. FORCE         1.000E-05
     CRITERION FOR RESIDUAL FORCE     WHEN THERE IS ZERO FLUX          1.000E-05
     CRITERION FOR DISP.    CORRECTION WHEN THERE IS ZERO FLUX         1.000E-03
     CRITERION FOR RESIDUAL FORCE     FOR A LINEAR INCREMENT           1.000E-08
     FIELD CONVERSION RATIO                                             1.00    
     CRITERION FOR ZERO FORCE     REL. TO TIME AVRG. MAX. FORCE        1.000E-05
     CRITERION FOR ZERO DISP.    RELATIVE TO CHARACTERISTIC LENGTH     1.000E-08

     VOLUMETRIC STRAIN COMPATIBILITY TOLERANCE FOR HYBRID SOLIDS       1.000E-05
     AXIAL STRAIN COMPATIBILITY TOLERANCE FOR HYBRID BEAMS             1.000E-05
     TRANS. SHEAR STRAIN COMPATIBILITY TOLERANCE FOR HYBRID BEAMS      1.000E-05
     SOFT CONTACT CONSTRAINT COMPATIBILITY TOLERANCE FOR P>P0          5.000E-03
     SOFT CONTACT CONSTRAINT COMPATIBILITY TOLERANCE FOR P=0.0         0.100    
     CONTACT FORCE ERROR TOLERANCE FOR CONVERT SDI=YES                 1.00    
     DISPLACEMENT COMPATIBILITY TOLERANCE FOR DCOUP ELEMENTS           1.000E-05
     ROTATION COMPATIBILITY TOLERANCE FOR DCOUP ELEMENTS               1.000E-05

 EQUILIBRIUM WILL BE CHECKED FOR SEVERE DISCONTINUITY ITERATIONS

 TIME INCREMENTATION CONTROL PARAMETERS:
 *** FIRST EQUILIBRIUM ITERATION FOR CONSECUTIVE DIVERGENCE CHECK             20
 *** EQUILIBRIUM ITERATION AT WHICH LOG. CONVERGENCE RATE CHECK BEGINS        20
     EQUILIBRIUM ITERATION AFTER WHICH ALTERNATE RESIDUAL IS USED              9
 *** MAXIMUM EQUILIBRIUM ITERATIONS ALLOWED                                   15
 *** EQUILIBRIUM ITERATION COUNT FOR CUT-BACK IN NEXT INCREMENT               15
 *** MAXIMUM EQUILIB. ITERS IN TWO INCREMENTS FOR TIME INCREMENT INCREASE     15
     MAXIMUM ITERATIONS FOR SEVERE DISCONTINUITIES                            50
 *** MAXIMUM CUT-BACKS ALLOWED IN AN INCREMENT                                30
     MAXIMUM DISCON. ITERS IN TWO INCREMENTS FOR TIME INCREMENT INCREASE      50
     MAXIMUM CONTACT AUGMENTATIONS FOR *SURFACE BEHAVIOR,AUGMENTED LAGRANGE    6
 *** CUT-BACK FACTOR AFTER DIVERGENCE                                 0.5000    
     CUT-BACK FACTOR FOR TOO SLOW CONVERGENCE                         0.5000    
     CUT-BACK FACTOR AFTER TOO MANY EQUILIBRIUM ITERATIONS            0.7500    
     CUT-BACK FACTOR AFTER TOO MANY SEVERE DISCONTINUITY ITERATIONS   0.2500    
     CUT-BACK FACTOR AFTER PROBLEMS IN ELEMENT ASSEMBLY               0.2500    
     INCREASE FACTOR AFTER TWO INCREMENTS THAT CONVERGE QUICKLY        1.500    
     MAX. TIME INCREMENT INCREASE FACTOR ALLOWED                       1.500    
     MAX. TIME INCREMENT INCREASE FACTOR ALLOWED (DYNAMICS)            1.250    
     MAX. TIME INCREMENT INCREASE FACTOR ALLOWED (DIFFUSION)           2.000    
     MINIMUM TIME INCREMENT RATIO FOR EXTRAPOLATION TO OCCUR          0.1000    
     MAX. RATIO OF TIME INCREMENT TO STABILITY LIMIT                   1.000    
     FRACTION OF STABILITY LIMIT FOR NEW TIME INCREMENT               0.9500    
     TIME INCREMENT INCREASE FACTOR BEFORE A TIME POINT                1.000    

 *** INDICATES USE OF NON-DEFAULT TIME INCREMENTATION CONTROL PARAMETER
     SELECTED WITH *CONTROLS
     AUTOMATIC TOLERANCES FOR OVERCLOSURE AND SEPARATION 
     PRESSURE ARE SUPPRESSED
     GLOBAL STABILIZATION CONTROL IS NOT USED
     FRICTION IS INCLUDED IN INCREMENT THAT THE CONTACT POINT CLOSES

          PRINT OF INCREMENT NUMBER, TIME, ETC., EVERY    1  INCREMENTS

     THE MAXIMUM NUMBER OF INCREMENTS IN THIS STEP IS                   10000

          LARGE DISPLACEMENT THEORY WILL BE USED

          UNSYMMETRIC MATRIX STORAGE AND SOLUTION WILL BE USED

     LINEAR EXTRAPOLATION WILL BE USED

     CHARACTERISTIC ELEMENT LENGTH     1.000E-03

     DETAILED OUTPUT OF DIAGNOSTICS TO DATABASE REQUESTED

     PRINT OF INCREMENT NUMBER, TIME, ETC., TO THE MESSAGE FILE EVERY     1  INCREMENTS

     ELEMENT OPERATIONS WILL BE CARRIED OUT IN PARALLEL USING   6 PROCESSORS

     PARALLEL CONTACT TRACKING ENABLED


     EQUATIONS ARE BEING REORDERED TO MINIMIZE WAVEFRONT

     COLLECTING MODEL CONSTRAINT INFORMATION FOR OVERCONSTRAINT CHECKS

     COLLECTING STEP CONSTRAINT INFORMATION FOR OVERCONSTRAINT CHECKS


  INCREMENT     1 STARTS. ATTEMPT NUMBER  1, TIME INCREMENT  1.000E-04
 
     INITIAL ELEMENT LOAD BALANCE
        COMPUTE NODE   1   PROCESS    NUMBER OF ELEMENTS
                              1            1536
                              2            1536
                              3            1536
                              4            1581
                              5            1536
                              6            1536

  USING THE DIRECT SOLVER WITH   6 PROCESSORS

               CONVERGENCE CHECKS FOR EQUILIBRIUM ITERATION     1


 AVERAGE FORCE                      1.032E-09   TIME AVG. FORCE       1.000E-02
 LARGEST RESIDUAL FORCE            -7.404E-10   AT NODE       5556   DOF  1
 LARGEST INCREMENT OF DISP.         2.100E-09   AT NODE        463   DOF  1
 LARGEST CORRECTION TO DISP.        2.100E-09   AT NODE        463   DOF  1
          THERE IS ZERO FORCE     EVERYWHERE
 

 ***WARNING: THERE IS ZERO FORCE EVERYWHERE IN THE MODEL BASED ON THE DEFAULT 
             CRITERION. PLEASE CHECK THE VALUE OF THE AVERAGE FORCE DURING THE 
             CURRENT ITERATION TO VERIFY THAT THE FORCE IS SMALL ENOUGH TO BE 
             TREATED AS ZERO. IF NOT, PLEASE USE THE SOLUTION CONTROLS TO RESET 
             THE CRITERION FOR ZERO FORCE.

 ITERATION SUMMARY FOR THE INCREMENT:   1 TOTAL ITERATIONS, OF WHICH
   0 ARE SEVERE DISCONTINUITY ITERATIONS AND  1 ARE EQUILIBRIUM ITERATIONS.

 TIME INCREMENT COMPLETED  1.000E-04,  FRACTION OF STEP COMPLETED  2.500E-05
 STEP TIME COMPLETED       1.000E-04,  TOTAL TIME COMPLETED        1.000E-04


  INCREMENT     2 STARTS. ATTEMPT NUMBER  1, TIME INCREMENT  1.000E-04

  USING THE DIRECT SOLVER WITH   6 PROCESSORS

               CONVERGENCE CHECKS FOR EQUILIBRIUM ITERATION     1


 AVERAGE FORCE                      2.064E-09   TIME AVG. FORCE       1.000E-02
 LARGEST RESIDUAL FORCE            -3.661E-10   AT NODE       5072   DOF  1
 LARGEST INCREMENT OF DISP.         2.100E-09   AT NODE       5317   DOF  1
 LARGEST CORRECTION TO DISP.        1.293E-11   AT NODE       5577   DOF  1
          THERE IS ZERO FORCE     EVERYWHERE
 

 ***WARNING: THERE IS ZERO FORCE EVERYWHERE IN THE MODEL BASED ON THE DEFAULT 
             CRITERION. PLEASE CHECK THE VALUE OF THE AVERAGE FORCE DURING THE 
             CURRENT ITERATION TO VERIFY THAT THE FORCE IS SMALL ENOUGH TO BE 
             TREATED AS ZERO. IF NOT, PLEASE USE THE SOLUTION CONTROLS TO RESET 
             THE CRITERION FOR ZERO FORCE.
          TIME INCREMENT MAY NOW INCREASE TO    1.500E-04

 ITERATION SUMMARY FOR THE INCREMENT:   1 TOTAL ITERATIONS, OF WHICH
   0 ARE SEVERE DISCONTINUITY ITERATIONS AND  1 ARE EQUILIBRIUM ITERATIONS.

 TIME INCREMENT COMPLETED  1.000E-04,  FRACTION OF STEP COMPLETED  5.000E-05
 STEP TIME COMPLETED       2.000E-04,  TOTAL TIME COMPLETED        2.000E-04


  INCREMENT     3 STARTS. ATTEMPT NUMBER  1, TIME INCREMENT  1.500E-04

  USING THE DIRECT SOLVER WITH   6 PROCESSORS

               CONVERGENCE CHECKS FOR EQUILIBRIUM ITERATION     1


 AVERAGE FORCE                      3.613E-09   TIME AVG. FORCE       1.000E-02
 LARGEST RESIDUAL FORCE            -4.832E-11   AT NODE       5093   DOF  1
 LARGEST INCREMENT OF DISP.         3.150E-09   AT NODE       5315   DOF  1
 LARGEST CORRECTION TO DISP.       -1.707E-12   AT NODE       5578   DOF  2
          THERE IS ZERO FORCE     EVERYWHERE
 

 ***WARNING: THERE IS ZERO FORCE EVERYWHERE IN THE MODEL BASED ON THE DEFAULT 
             CRITERION. PLEASE CHECK THE VALUE OF THE AVERAGE FORCE DURING THE 
             CURRENT ITERATION TO VERIFY THAT THE FORCE IS SMALL ENOUGH TO BE 
             TREATED AS ZERO. IF NOT, PLEASE USE THE SOLUTION CONTROLS TO RESET 
             THE CRITERION FOR ZERO FORCE.
          TIME INCREMENT MAY NOW INCREASE TO    2.250E-04

 ITERATION SUMMARY FOR THE INCREMENT:   1 TOTAL ITERATIONS, OF WHICH
   0 ARE SEVERE DISCONTINUITY ITERATIONS AND  1 ARE EQUILIBRIUM ITERATIONS.

 TIME INCREMENT COMPLETED  1.500E-04,  FRACTION OF STEP COMPLETED  8.750E-05
 STEP TIME COMPLETED       3.500E-04,  TOTAL TIME COMPLETED        3.500E-04


  INCREMENT     4 STARTS. ATTEMPT NUMBER  1, TIME INCREMENT  2.250E-04

  USING THE DIRECT SOLVER WITH   6 PROCESSORS

               CONVERGENCE CHECKS FOR EQUILIBRIUM ITERATION     1


 AVERAGE FORCE                      5.935E-09   TIME AVG. FORCE       1.000E-02
 LARGEST RESIDUAL FORCE            -1.656E-10   AT NODE       5093   DOF  1
 LARGEST INCREMENT OF DISP.         4.725E-09   AT NODE       5315   DOF  1
 LARGEST CORRECTION TO DISP.       -5.851E-12   AT NODE       5094   DOF  2
          THERE IS ZERO FORCE     EVERYWHERE
 

 ***WARNING: THERE IS ZERO FORCE EVERYWHERE IN THE MODEL BASED ON THE DEFAULT 
             CRITERION. PLEASE CHECK THE VALUE OF THE AVERAGE FORCE DURING THE 
             CURRENT ITERATION TO VERIFY THAT THE FORCE IS SMALL ENOUGH TO BE 
             TREATED AS ZERO. IF NOT, PLEASE USE THE SOLUTION CONTROLS TO RESET 
             THE CRITERION FOR ZERO FORCE.
          TIME INCREMENT MAY NOW INCREASE TO    3.375E-04

 ITERATION SUMMARY FOR THE INCREMENT:   1 TOTAL ITERATIONS, OF WHICH
   0 ARE SEVERE DISCONTINUITY ITERATIONS AND  1 ARE EQUILIBRIUM ITERATIONS.

 TIME INCREMENT COMPLETED  2.250E-04,  FRACTION OF STEP COMPLETED  1.438E-04
 STEP TIME COMPLETED       5.750E-04,  TOTAL TIME COMPLETED        5.750E-04


  INCREMENT     5 STARTS. ATTEMPT NUMBER  1, TIME INCREMENT  3.375E-04

  USING THE DIRECT SOLVER WITH   6 PROCESSORS

               CONVERGENCE CHECKS FOR EQUILIBRIUM ITERATION     1


 AVERAGE FORCE                      9.419E-09   TIME AVG. FORCE       1.000E-02
 LARGEST RESIDUAL FORCE            -8.442E-11   AT NODE       5093   DOF  1
 LARGEST INCREMENT OF DISP.         7.088E-09   AT NODE       5315   DOF  1
 LARGEST CORRECTION TO DISP.        2.983E-12   AT NODE       5071   DOF  2
          THERE IS ZERO FORCE     EVERYWHERE
 

 ***WARNING: THERE IS ZERO FORCE EVERYWHERE IN THE MODEL BASED ON THE DEFAULT 
             CRITERION. PLEASE CHECK THE VALUE OF THE AVERAGE FORCE DURING THE 
             CURRENT ITERATION TO VERIFY THAT THE FORCE IS SMALL ENOUGH TO BE 
             TREATED AS ZERO. IF NOT, PLEASE USE THE SOLUTION CONTROLS TO RESET 
             THE CRITERION FOR ZERO FORCE.
          TIME INCREMENT MAY NOW INCREASE TO    5.062E-04

 ITERATION SUMMARY FOR THE INCREMENT:   1 TOTAL ITERATIONS, OF WHICH
   0 ARE SEVERE DISCONTINUITY ITERATIONS AND  1 ARE EQUILIBRIUM ITERATIONS.

 TIME INCREMENT COMPLETED  3.375E-04,  FRACTION OF STEP COMPLETED  2.281E-04
 STEP TIME COMPLETED       9.125E-04,  TOTAL TIME COMPLETED        9.125E-04


  INCREMENT     6 STARTS. ATTEMPT NUMBER  1, TIME INCREMENT  5.062E-04

  USING THE DIRECT SOLVER WITH   6 PROCESSORS

               CONVERGENCE CHECKS FOR EQUILIBRIUM ITERATION     1


 AVERAGE FORCE                      1.464E-08   TIME AVG. FORCE       1.000E-02
 LARGEST RESIDUAL FORCE            -9.231E-12   AT NODE       5072   DOF  1
 LARGEST INCREMENT OF DISP.         1.063E-08   AT NODE       5315   DOF  1
 LARGEST CORRECTION TO DISP.        3.262E-13   AT NODE       5577   DOF  1
          THERE IS ZERO FORCE     EVERYWHERE
 

 ***WARNING: THERE IS ZERO FORCE EVERYWHERE IN THE MODEL BASED ON THE DEFAULT 
             CRITERION. PLEASE CHECK THE VALUE OF THE AVERAGE FORCE DURING THE 
             CURRENT ITERATION TO VERIFY THAT THE FORCE IS SMALL ENOUGH TO BE 
             TREATED AS ZERO. IF NOT, PLEASE USE THE SOLUTION CONTROLS TO RESET 
             THE CRITERION FOR ZERO FORCE.
          TIME INCREMENT MAY NOW INCREASE TO    7.594E-04

 ITERATION SUMMARY FOR THE INCREMENT:   1 TOTAL ITERATIONS, OF WHICH
   0 ARE SEVERE DISCONTINUITY ITERATIONS AND  1 ARE EQUILIBRIUM ITERATIONS.

 TIME INCREMENT COMPLETED  5.062E-04,  FRACTION OF STEP COMPLETED  3.547E-04
 STEP TIME COMPLETED       1.419E-03,  TOTAL TIME COMPLETED        1.419E-03


  INCREMENT     7 STARTS. ATTEMPT NUMBER  1, TIME INCREMENT  7.594E-04

  USING THE DIRECT SOLVER WITH   6 PROCESSORS

               CONVERGENCE CHECKS FOR EQUILIBRIUM ITERATION     1


 AVERAGE FORCE                      2.248E-08   TIME AVG. FORCE       1.000E-02
 LARGEST RESIDUAL FORCE             3.701E-11   AT NODE       5577   DOF  1
 LARGEST INCREMENT OF DISP.         1.595E-08   AT NODE       5315   DOF  1
 LARGEST CORRECTION TO DISP.       -1.308E-12   AT NODE       5556   DOF  1
          THERE IS ZERO FORCE     EVERYWHERE
 

 ***WARNING: THERE IS ZERO FORCE EVERYWHERE IN THE MODEL BASED ON THE DEFAULT 
             CRITERION. PLEASE CHECK THE VALUE OF THE AVERAGE FORCE DURING THE 
             CURRENT ITERATION TO VERIFY THAT THE FORCE IS SMALL ENOUGH TO BE 
             TREATED AS ZERO. IF NOT, PLEASE USE THE SOLUTION CONTROLS TO RESET 
             THE CRITERION FOR ZERO FORCE.
          TIME INCREMENT MAY NOW INCREASE TO    1.139E-03

 ITERATION SUMMARY FOR THE INCREMENT:   1 TOTAL ITERATIONS, OF WHICH
   0 ARE SEVERE DISCONTINUITY ITERATIONS AND  1 ARE EQUILIBRIUM ITERATIONS.

 TIME INCREMENT COMPLETED  7.594E-04,  FRACTION OF STEP COMPLETED  5.445E-04
 STEP TIME COMPLETED       2.178E-03,  TOTAL TIME COMPLETED        2.178E-03


  INCREMENT     8 STARTS. ATTEMPT NUMBER  1, TIME INCREMENT  1.139E-03

  USING THE DIRECT SOLVER WITH   6 PROCESSORS

               CONVERGENCE CHECKS FOR EQUILIBRIUM ITERATION     1


 AVERAGE FORCE                      3.424E-08   TIME AVG. FORCE       1.000E-02
 LARGEST RESIDUAL FORCE             1.945E-11   AT NODE       5093   DOF  1
 LARGEST INCREMENT OF DISP.         2.392E-08   AT NODE       5799   DOF  1
 LARGEST CORRECTION TO DISP.        6.875E-13   AT NODE       5577   DOF  1
          THERE IS ZERO FORCE     EVERYWHERE
 

 ***WARNING: THERE IS ZERO FORCE EVERYWHERE IN THE MODEL BASED ON THE DEFAULT 
             CRITERION. PLEASE CHECK THE VALUE OF THE AVERAGE FORCE DURING THE 
             CURRENT ITERATION TO VERIFY THAT THE FORCE IS SMALL ENOUGH TO BE 
             TREATED AS ZERO. IF NOT, PLEASE USE THE SOLUTION CONTROLS TO RESET 
             THE CRITERION FOR ZERO FORCE.
          TIME INCREMENT MAY NOW INCREASE TO    1.709E-03

 ITERATION SUMMARY FOR THE INCREMENT:   1 TOTAL ITERATIONS, OF WHICH
   0 ARE SEVERE DISCONTINUITY ITERATIONS AND  1 ARE EQUILIBRIUM ITERATIONS.

 TIME INCREMENT COMPLETED  1.139E-03,  FRACTION OF STEP COMPLETED  8.293E-04
 STEP TIME COMPLETED       3.317E-03,  TOTAL TIME COMPLETED        3.317E-03


  INCREMENT     9 STARTS. ATTEMPT NUMBER  1, TIME INCREMENT  1.709E-03

  USING THE DIRECT SOLVER WITH   6 PROCESSORS

               CONVERGENCE CHECKS FOR EQUILIBRIUM ITERATION     1


 AVERAGE FORCE                      5.188E-08   TIME AVG. FORCE       1.000E-02
 LARGEST RESIDUAL FORCE             1.704E-12   AT NODE       5556   DOF  1
 LARGEST INCREMENT OF DISP.         3.588E-08   AT NODE       5315   DOF  1
 LARGEST CORRECTION TO DISP.       -6.084E-14   AT NODE       5094   DOF  1
          THERE IS ZERO FORCE     EVERYWHERE
 

 ***WARNING: THERE IS ZERO FORCE EVERYWHERE IN THE MODEL BASED ON THE DEFAULT 
             CRITERION. PLEASE CHECK THE VALUE OF THE AVERAGE FORCE DURING THE 
             CURRENT ITERATION TO VERIFY THAT THE FORCE IS SMALL ENOUGH TO BE 
             TREATED AS ZERO. IF NOT, PLEASE USE THE SOLUTION CONTROLS TO RESET 
             THE CRITERION FOR ZERO FORCE.
          TIME INCREMENT MAY NOW INCREASE TO    2.563E-03

 ITERATION SUMMARY FOR THE INCREMENT:   1 TOTAL ITERATIONS, OF WHICH
   0 ARE SEVERE DISCONTINUITY ITERATIONS AND  1 ARE EQUILIBRIUM ITERATIONS.

 TIME INCREMENT COMPLETED  1.709E-03,  FRACTION OF STEP COMPLETED  1.256E-03
 STEP TIME COMPLETED       5.026E-03,  TOTAL TIME COMPLETED        5.026E-03


  INCREMENT    10 STARTS. ATTEMPT NUMBER  1, TIME INCREMENT  2.563E-03

  USING THE DIRECT SOLVER WITH   6 PROCESSORS

               CONVERGENCE CHECKS FOR EQUILIBRIUM ITERATION     1


 AVERAGE FORCE                      7.833E-08   TIME AVG. FORCE       1.000E-02
 LARGEST RESIDUAL FORCE             8.264E-12   AT NODE       5072   DOF  1
 LARGEST INCREMENT OF DISP.         5.382E-08   AT NODE       5315   DOF  1
 LARGEST CORRECTION TO DISP.        2.934E-13   AT NODE       5071   DOF  1
          THERE IS ZERO FORCE     EVERYWHERE
 

 ***WARNING: THERE IS ZERO FORCE EVERYWHERE IN THE MODEL BASED ON THE DEFAULT 
             CRITERION. PLEASE CHECK THE VALUE OF THE AVERAGE FORCE DURING THE 
             CURRENT ITERATION TO VERIFY THAT THE FORCE IS SMALL ENOUGH TO BE 
             TREATED AS ZERO. IF NOT, PLEASE USE THE SOLUTION CONTROLS TO RESET 
             THE CRITERION FOR ZERO FORCE.
          TIME INCREMENT MAY NOW INCREASE TO    3.844E-03

 ITERATION SUMMARY FOR THE INCREMENT:   1 TOTAL ITERATIONS, OF WHICH
   0 ARE SEVERE DISCONTINUITY ITERATIONS AND  1 ARE EQUILIBRIUM ITERATIONS.

 TIME INCREMENT COMPLETED  2.563E-03,  FRACTION OF STEP COMPLETED  1.897E-03
 STEP TIME COMPLETED       7.589E-03,  TOTAL TIME COMPLETED        7.589E-03


  INCREMENT    11 STARTS. ATTEMPT NUMBER  1, TIME INCREMENT  3.844E-03

  USING THE DIRECT SOLVER WITH   6 PROCESSORS

               CONVERGENCE CHECKS FOR EQUILIBRIUM ITERATION     1


 AVERAGE FORCE                      1.180E-07   TIME AVG. FORCE       1.180E-07
 LARGEST RESIDUAL FORCE            -4.476E-12   AT NODE       5577   DOF  1
 LARGEST INCREMENT OF DISP.         8.073E-08   AT NODE       5799   DOF  1
 LARGEST CORRECTION TO DISP.       -1.613E-13   AT NODE       5578   DOF  1
          THE FORCE     EQUILIBRIUM EQUATIONS HAVE CONVERGED
          TIME INCREMENT MAY NOW INCREASE TO    5.767E-03

 ITERATION SUMMARY FOR THE INCREMENT:   1 TOTAL ITERATIONS, OF WHICH
   0 ARE SEVERE DISCONTINUITY ITERATIONS AND  1 ARE EQUILIBRIUM ITERATIONS.

 TIME INCREMENT COMPLETED  3.844E-03,  FRACTION OF STEP COMPLETED  2.858E-03
 STEP TIME COMPLETED       1.143E-02,  TOTAL TIME COMPLETED        1.143E-02


  INCREMENT    12 STARTS. ATTEMPT NUMBER  1, TIME INCREMENT  5.767E-03

  USING THE DIRECT SOLVER WITH   6 PROCESSORS

               CONVERGENCE CHECKS FOR EQUILIBRIUM ITERATION     1


 AVERAGE FORCE                      1.796E-07   TIME AVG. FORCE       1.488E-07
 LARGEST RESIDUAL FORCE            -2.985E-13   AT NODE       5556   DOF  1
 LARGEST INCREMENT OF DISP.         1.211E-07   AT NODE       5799   DOF  1
 LARGEST CORRECTION TO DISP.        1.777E-14   AT NODE       5577   DOF  1
          THE FORCE     EQUILIBRIUM EQUATIONS HAVE CONVERGED
          TIME INCREMENT MAY NOW INCREASE TO    8.650E-03

 ITERATION SUMMARY FOR THE INCREMENT:   1 TOTAL ITERATIONS, OF WHICH
   0 ARE SEVERE DISCONTINUITY ITERATIONS AND  1 ARE EQUILIBRIUM ITERATIONS.

 TIME INCREMENT COMPLETED  5.767E-03,  FRACTION OF STEP COMPLETED  4.300E-03
 STEP TIME COMPLETED       1.720E-02,  TOTAL TIME COMPLETED        1.720E-02


  INCREMENT    13 STARTS. ATTEMPT NUMBER  1, TIME INCREMENT  8.650E-03

  USING THE DIRECT SOLVER WITH   6 PROCESSORS

               CONVERGENCE CHECKS FOR EQUILIBRIUM ITERATION     1


 AVERAGE FORCE                      2.695E-07   TIME AVG. FORCE       1.890E-07
 LARGEST RESIDUAL FORCE            -1.844E-12   AT NODE       5072   DOF  1
 LARGEST INCREMENT OF DISP.         1.816E-07   AT NODE       5315   DOF  1
 LARGEST CORRECTION TO DISP.       -8.141E-14   AT NODE       5556   DOF  1
          THE FORCE     EQUILIBRIUM EQUATIONS HAVE CONVERGED
          TIME INCREMENT MAY NOW INCREASE TO    1.297E-02

 ITERATION SUMMARY FOR THE INCREMENT:   1 TOTAL ITERATIONS, OF WHICH
   0 ARE SEVERE DISCONTINUITY ITERATIONS AND  1 ARE EQUILIBRIUM ITERATIONS.

 TIME INCREMENT COMPLETED  8.650E-03,  FRACTION OF STEP COMPLETED  6.462E-03
 STEP TIME COMPLETED       2.585E-02,  TOTAL TIME COMPLETED        2.585E-02


  INCREMENT    14 STARTS. ATTEMPT NUMBER  1, TIME INCREMENT  1.297E-02

  USING THE DIRECT SOLVER WITH   6 PROCESSORS

               CONVERGENCE CHECKS FOR EQUILIBRIUM ITERATION     1


 AVERAGE FORCE                      4.042E-07   TIME AVG. FORCE       2.428E-07
 LARGEST RESIDUAL FORCE            -1.029E-12   AT NODE       5072   DOF  1
 LARGEST INCREMENT OF DISP.         2.725E-07   AT NODE       5315   DOF  1
 LARGEST CORRECTION TO DISP.       -7.292E-14   AT NODE       5072   DOF  1
          THE FORCE     EQUILIBRIUM EQUATIONS HAVE CONVERGED
          TIME INCREMENT MAY NOW INCREASE TO    1.946E-02

 ITERATION SUMMARY FOR THE INCREMENT:   1 TOTAL ITERATIONS, OF WHICH
   0 ARE SEVERE DISCONTINUITY ITERATIONS AND  1 ARE EQUILIBRIUM ITERATIONS.

 TIME INCREMENT COMPLETED  1.297E-02,  FRACTION OF STEP COMPLETED  9.706E-03
 STEP TIME COMPLETED       3.882E-02,  TOTAL TIME COMPLETED        3.882E-02


  INCREMENT    15 STARTS. ATTEMPT NUMBER  1, TIME INCREMENT  1.946E-02

  USING THE DIRECT SOLVER WITH   6 PROCESSORS

               CONVERGENCE CHECKS FOR EQUILIBRIUM ITERATION     1


 AVERAGE FORCE                      6.062E-07   TIME AVG. FORCE       3.155E-07
 LARGEST RESIDUAL FORCE             4.724E-14   AT NODE       5093   DOF  2
 LARGEST INCREMENT OF DISP.         4.087E-07   AT NODE       5315   DOF  1
 LARGEST CORRECTION TO DISP.        8.397E-14   AT NODE       5555   DOF  1
          THE FORCE     EQUILIBRIUM EQUATIONS HAVE CONVERGED
          TIME INCREMENT MAY NOW INCREASE TO    2.919E-02

 ITERATION SUMMARY FOR THE INCREMENT:   1 TOTAL ITERATIONS, OF WHICH
   0 ARE SEVERE DISCONTINUITY ITERATIONS AND  1 ARE EQUILIBRIUM ITERATIONS.

 TIME INCREMENT COMPLETED  1.946E-02,  FRACTION OF STEP COMPLETED  1.457E-02
 STEP TIME COMPLETED       5.829E-02,  TOTAL TIME COMPLETED        5.829E-02


  INCREMENT    16 STARTS. ATTEMPT NUMBER  1, TIME INCREMENT  2.919E-02

  USING THE DIRECT SOLVER WITH   6 PROCESSORS

               CONVERGENCE CHECKS FOR EQUILIBRIUM ITERATION     1


 AVERAGE FORCE                      9.088E-07   TIME AVG. FORCE       4.144E-07
 LARGEST RESIDUAL FORCE            -4.089E-13   AT NODE       5093   DOF  1
 LARGEST INCREMENT OF DISP.         6.131E-07   AT NODE       5799   DOF  1
 LARGEST CORRECTION TO DISP.       -1.997E-13   AT NODE       5094   DOF  1
          THE FORCE     EQUILIBRIUM EQUATIONS HAVE CONVERGED
          TIME INCREMENT MAY NOW INCREASE TO    4.379E-02

 ITERATION SUMMARY FOR THE INCREMENT:   1 TOTAL ITERATIONS, OF WHICH
   0 ARE SEVERE DISCONTINUITY ITERATIONS AND  1 ARE EQUILIBRIUM ITERATIONS.

 TIME INCREMENT COMPLETED  2.919E-02,  FRACTION OF STEP COMPLETED  2.187E-02
 STEP TIME COMPLETED       8.748E-02,  TOTAL TIME COMPLETED        8.748E-02


  INCREMENT    17 STARTS. ATTEMPT NUMBER  1, TIME INCREMENT  4.379E-02

  USING THE DIRECT SOLVER WITH   6 PROCESSORS

               CONVERGENCE CHECKS FOR EQUILIBRIUM ITERATION     1


 AVERAGE FORCE                      1.362E-06   TIME AVG. FORCE       5.498E-07
 LARGEST RESIDUAL FORCE             2.285E-13   AT NODE       5093   DOF  2
 LARGEST INCREMENT OF DISP.         9.196E-07   AT NODE       5315   DOF  1
 LARGEST CORRECTION TO DISP.        4.249E-13   AT NODE       5071   DOF  1
          THE FORCE     EQUILIBRIUM EQUATIONS HAVE CONVERGED
          TIME INCREMENT MAY NOW INCREASE TO    6.568E-02

 ITERATION SUMMARY FOR THE INCREMENT:   1 TOTAL ITERATIONS, OF WHICH
   0 ARE SEVERE DISCONTINUITY ITERATIONS AND  1 ARE EQUILIBRIUM ITERATIONS.

 TIME INCREMENT COMPLETED  4.379E-02,  FRACTION OF STEP COMPLETED  3.282E-02
 STEP TIME COMPLETED       0.131    ,  TOTAL TIME COMPLETED        0.131    


  INCREMENT    18 STARTS. ATTEMPT NUMBER  1, TIME INCREMENT  6.568E-02

  USING THE DIRECT SOLVER WITH   6 PROCESSORS

               CONVERGENCE CHECKS FOR EQUILIBRIUM ITERATION     1


 AVERAGE FORCE                      2.043E-06   TIME AVG. FORCE       7.365E-07
 LARGEST RESIDUAL FORCE             3.373E-14   AT NODE       5577   DOF  1
 LARGEST INCREMENT OF DISP.         1.379E-06   AT NODE       5315   DOF  1
 LARGEST CORRECTION TO DISP.        9.372E-13   AT NODE       5555   DOF  1
          THE FORCE     EQUILIBRIUM EQUATIONS HAVE CONVERGED
          TIME INCREMENT MAY NOW INCREASE TO    9.853E-02

 ITERATION SUMMARY FOR THE INCREMENT:   1 TOTAL ITERATIONS, OF WHICH
   0 ARE SEVERE DISCONTINUITY ITERATIONS AND  1 ARE EQUILIBRIUM ITERATIONS.

 TIME INCREMENT COMPLETED  6.568E-02,  FRACTION OF STEP COMPLETED  4.924E-02
 STEP TIME COMPLETED       0.197    ,  TOTAL TIME COMPLETED        0.197    


  INCREMENT    19 STARTS. ATTEMPT NUMBER  1, TIME INCREMENT  9.853E-02

  USING THE DIRECT SOLVER WITH   6 PROCESSORS

               CONVERGENCE CHECKS FOR EQUILIBRIUM ITERATION     1


 AVERAGE FORCE                      3.062E-06   TIME AVG. FORCE       9.949E-07
 LARGEST RESIDUAL FORCE             1.838E-13   AT NODE       5577   DOF  1
 LARGEST INCREMENT OF DISP.         2.069E-06   AT NODE       5315   DOF  1
 LARGEST CORRECTION TO DISP.       -2.110E-12   AT NODE       5556   DOF  1
          THE FORCE     EQUILIBRIUM EQUATIONS HAVE CONVERGED
          TIME INCREMENT MAY NOW INCREASE TO    0.148    

 ITERATION SUMMARY FOR THE INCREMENT:   1 TOTAL ITERATIONS, OF WHICH
   0 ARE SEVERE DISCONTINUITY ITERATIONS AND  1 ARE EQUILIBRIUM ITERATIONS.

 TIME INCREMENT COMPLETED  9.853E-02,  FRACTION OF STEP COMPLETED  7.387E-02
 STEP TIME COMPLETED       0.295    ,  TOTAL TIME COMPLETED        0.295    


  INCREMENT    20 STARTS. ATTEMPT NUMBER  1, TIME INCREMENT  0.148    

  USING THE DIRECT SOLVER WITH   6 PROCESSORS

               CONVERGENCE CHECKS FOR EQUILIBRIUM ITERATION     1


 AVERAGE FORCE                      4.591E-06   TIME AVG. FORCE       1.355E-06
 LARGEST RESIDUAL FORCE             3.651E-13   AT NODE       5094   DOF  1
 LARGEST INCREMENT OF DISP.         3.104E-06   AT NODE       5799   DOF  1
 LARGEST CORRECTION TO DISP.       -4.747E-12   AT NODE       5094   DOF  1
          THE FORCE     EQUILIBRIUM EQUATIONS HAVE CONVERGED
          TIME INCREMENT MAY NOW INCREASE TO    0.222    

 ITERATION SUMMARY FOR THE INCREMENT:   1 TOTAL ITERATIONS, OF WHICH
   0 ARE SEVERE DISCONTINUITY ITERATIONS AND  1 ARE EQUILIBRIUM ITERATIONS.

 TIME INCREMENT COMPLETED  0.148    ,  FRACTION OF STEP COMPLETED  0.111    
 STEP TIME COMPLETED       0.443    ,  TOTAL TIME COMPLETED        0.443    


  INCREMENT    21 STARTS. ATTEMPT NUMBER  1, TIME INCREMENT  0.222    

  USING THE DIRECT SOLVER WITH   6 PROCESSORS

               CONVERGENCE CHECKS FOR EQUILIBRIUM ITERATION     1


 AVERAGE FORCE                      6.885E-06   TIME AVG. FORCE       1.857E-06
 LARGEST RESIDUAL FORCE            -1.050E-12   AT NODE       5071   DOF  1
 LARGEST INCREMENT OF DISP.         4.655E-06   AT NODE       5315   DOF  1
 LARGEST CORRECTION TO DISP.        1.069E-11   AT NODE       5071   DOF  1
          THE FORCE     EQUILIBRIUM EQUATIONS HAVE CONVERGED
          TIME INCREMENT MAY NOW INCREASE TO    0.333    

 ITERATION SUMMARY FOR THE INCREMENT:   1 TOTAL ITERATIONS, OF WHICH
   0 ARE SEVERE DISCONTINUITY ITERATIONS AND  1 ARE EQUILIBRIUM ITERATIONS.

 TIME INCREMENT COMPLETED  0.222    ,  FRACTION OF STEP COMPLETED  0.166    
 STEP TIME COMPLETED       0.665    ,  TOTAL TIME COMPLETED        0.665    


  INCREMENT    22 STARTS. ATTEMPT NUMBER  1, TIME INCREMENT  0.333    

  USING THE DIRECT SOLVER WITH   6 PROCESSORS

               CONVERGENCE CHECKS FOR EQUILIBRIUM ITERATION     1


 AVERAGE FORCE                      1.033E-05   TIME AVG. FORCE       2.563E-06
 LARGEST RESIDUAL FORCE             3.528E-12   AT NODE       5094   DOF  1
 LARGEST INCREMENT OF DISP.         6.983E-06   AT NODE       5315   DOF  1
 LARGEST CORRECTION TO DISP.       -2.408E-11   AT NODE       5094   DOF  1
          THE FORCE     EQUILIBRIUM EQUATIONS HAVE CONVERGED
          TIME INCREMENT MAY NOW INCREASE TO    0.499    

 ITERATION SUMMARY FOR THE INCREMENT:   1 TOTAL ITERATIONS, OF WHICH
   0 ARE SEVERE DISCONTINUITY ITERATIONS AND  1 ARE EQUILIBRIUM ITERATIONS.

 TIME INCREMENT COMPLETED  0.333    ,  FRACTION OF STEP COMPLETED  0.249    
 STEP TIME COMPLETED       0.997    ,  TOTAL TIME COMPLETED        0.997    


  INCREMENT    23 STARTS. ATTEMPT NUMBER  1, TIME INCREMENT  0.499    

  USING THE DIRECT SOLVER WITH   6 PROCESSORS

               CONVERGENCE CHECKS FOR EQUILIBRIUM ITERATION     1


 AVERAGE FORCE                      1.549E-05   TIME AVG. FORCE       3.557E-06
 LARGEST RESIDUAL FORCE            -1.198E-11   AT NODE       5071   DOF  1
 LARGEST INCREMENT OF DISP.         1.047E-05   AT NODE       5799   DOF  1
 LARGEST CORRECTION TO DISP.        5.424E-11   AT NODE       5555   DOF  1
          THE FORCE     EQUILIBRIUM EQUATIONS HAVE CONVERGED
          TIME INCREMENT MAY NOW INCREASE TO    0.748    

 ITERATION SUMMARY FOR THE INCREMENT:   1 TOTAL ITERATIONS, OF WHICH
   0 ARE SEVERE DISCONTINUITY ITERATIONS AND  1 ARE EQUILIBRIUM ITERATIONS.

 TIME INCREMENT COMPLETED  0.499    ,  FRACTION OF STEP COMPLETED  0.374    
 STEP TIME COMPLETED        1.50    ,  TOTAL TIME COMPLETED         1.50    


  INCREMENT    24 STARTS. ATTEMPT NUMBER  1, TIME INCREMENT  0.748    

  USING THE DIRECT SOLVER WITH   6 PROCESSORS

               CONVERGENCE CHECKS FOR EQUILIBRIUM ITERATION     1


 AVERAGE FORCE                      2.323E-05   TIME AVG. FORCE       4.962E-06
 LARGEST RESIDUAL FORCE             8.035E-09   AT NODE       5072   DOF  2
 LARGEST INCREMENT OF DISP.         1.571E-05   AT NODE       5315   DOF  1
 LARGEST CORRECTION TO DISP.        4.877E-10   AT NODE       5093   DOF  1
          THE FORCE     EQUILIBRIUM EQUATIONS HAVE CONVERGED
          TIME INCREMENT MAY NOW INCREASE TO     1.12    

 ITERATION SUMMARY FOR THE INCREMENT:   1 TOTAL ITERATIONS, OF WHICH
   0 ARE SEVERE DISCONTINUITY ITERATIONS AND  1 ARE EQUILIBRIUM ITERATIONS.

 TIME INCREMENT COMPLETED  0.748    ,  FRACTION OF STEP COMPLETED  0.561    
 STEP TIME COMPLETED        2.24    ,  TOTAL TIME COMPLETED         2.24    


  INCREMENT    25 STARTS. ATTEMPT NUMBER  1, TIME INCREMENT   1.12    

  USING THE DIRECT SOLVER WITH   6 PROCESSORS

               CONVERGENCE CHECKS FOR EQUILIBRIUM ITERATION     1


 AVERAGE FORCE                      3.484E-05   TIME AVG. FORCE       6.954E-06
 LARGEST RESIDUAL FORCE             9.290E-09   AT NODE       5094   DOF  2
 LARGEST INCREMENT OF DISP.         2.357E-05   AT NODE       5315   DOF  1
 LARGEST CORRECTION TO DISP.        1.868E-09   AT NODE       5072   DOF  2
          THE FORCE     EQUILIBRIUM EQUATIONS HAVE CONVERGED

 ITERATION SUMMARY FOR THE INCREMENT:   1 TOTAL ITERATIONS, OF WHICH
   0 ARE SEVERE DISCONTINUITY ITERATIONS AND  1 ARE EQUILIBRIUM ITERATIONS.

 TIME INCREMENT COMPLETED   1.12    ,  FRACTION OF STEP COMPLETED  0.842    
 STEP TIME COMPLETED        3.37    ,  TOTAL TIME COMPLETED         3.37    


  INCREMENT    26 STARTS. ATTEMPT NUMBER  1, TIME INCREMENT  0.633    

  USING THE DIRECT SOLVER WITH   6 PROCESSORS

               CONVERGENCE CHECKS FOR EQUILIBRIUM ITERATION     1


 AVERAGE FORCE                      4.141E-05   TIME AVG. FORCE       9.108E-06
 LARGEST RESIDUAL FORCE             2.094E-09   AT NODE       5578   DOF  2
 LARGEST INCREMENT OF DISP.         1.330E-05   AT NODE       5799   DOF  1
 LARGEST CORRECTION TO DISP.        2.812E-10   AT NODE       5556   DOF  2
          THE FORCE     EQUILIBRIUM EQUATIONS HAVE CONVERGED

 ITERATION SUMMARY FOR THE INCREMENT:   1 TOTAL ITERATIONS, OF WHICH
   0 ARE SEVERE DISCONTINUITY ITERATIONS AND  1 ARE EQUILIBRIUM ITERATIONS.

 TIME INCREMENT COMPLETED  0.633    ,  FRACTION OF STEP COMPLETED   1.00    
 STEP TIME COMPLETED        4.00    ,  TOTAL TIME COMPLETED         4.00    
1

   Abaqus 6.9-1                                  Date 13-Oct-2015   Time 01:07:28
   For use at GEORGIA INSTITUTE OF TECHNOLOGY under license from Dassault Systemes or its subsidiary.

                                                                                 
                                                                                 
 STEP    2     INCREMENT     1     STEP TIME    0.00    


                        S T E P       2     S T A T I C   A N A L Y S I S


                                                                                          

     AUTOMATIC TIME CONTROL WITH -
          A SUGGESTED INITIAL TIME INCREMENT OF                1.000E-04
          AND A TOTAL TIME PERIOD OF                           1.000E-02
          THE MINIMUM TIME INCREMENT ALLOWED IS                1.000E-09
          THE MAXIMUM TIME INCREMENT ALLOWED IS                1.000E-02

     LINEAR EQUATION SOLVER TYPE         DIRECT SPARSE

 CONVERGENCE TOLERANCE PARAMETERS FOR FORCE    
     CRITERION FOR RESIDUAL FORCE     FOR A NONLINEAR PROBLEM          5.000E-03
     CRITERION FOR DISP.    CORRECTION IN A NONLINEAR PROBLEM          1.000E-02
     INIT. VALUE OF TIME AVG. FORCE     IS TIME AVG. FORCE     IN PREVIOUS STEP
     AVERAGE FORCE     IS TIME AVERAGE FORCE    
     ALTERNATE CRIT. FOR RESIDUAL FORCE     FOR A NONLINEAR PROBLEM    2.000E-02
     CRITERION FOR ZERO FORCE     RELATIVE TO TIME AVRG. FORCE         1.000E-05
     CRITERION FOR RESIDUAL FORCE     WHEN THERE IS ZERO FLUX          1.000E-05
     CRITERION FOR DISP.    CORRECTION WHEN THERE IS ZERO FLUX         1.000E-03
     CRITERION FOR RESIDUAL FORCE     FOR A LINEAR INCREMENT           1.000E-08
     FIELD CONVERSION RATIO                                             1.00    
     CRITERION FOR ZERO FORCE     REL. TO TIME AVRG. MAX. FORCE        1.000E-05
     CRITERION FOR ZERO DISP.    RELATIVE TO CHARACTERISTIC LENGTH     1.000E-08

     VOLUMETRIC STRAIN COMPATIBILITY TOLERANCE FOR HYBRID SOLIDS       1.000E-05
     AXIAL STRAIN COMPATIBILITY TOLERANCE FOR HYBRID BEAMS             1.000E-05
     TRANS. SHEAR STRAIN COMPATIBILITY TOLERANCE FOR HYBRID BEAMS      1.000E-05
     SOFT CONTACT CONSTRAINT COMPATIBILITY TOLERANCE FOR P>P0          5.000E-03
     SOFT CONTACT CONSTRAINT COMPATIBILITY TOLERANCE FOR P=0.0         0.100    
     CONTACT FORCE ERROR TOLERANCE FOR CONVERT SDI=YES                 1.00    
     DISPLACEMENT COMPATIBILITY TOLERANCE FOR DCOUP ELEMENTS           1.000E-05
     ROTATION COMPATIBILITY TOLERANCE FOR DCOUP ELEMENTS               1.000E-05

 EQUILIBRIUM WILL BE CHECKED FOR SEVERE DISCONTINUITY ITERATIONS

 TIME INCREMENTATION CONTROL PARAMETERS:
 *** FIRST EQUILIBRIUM ITERATION FOR CONSECUTIVE DIVERGENCE CHECK             20
 *** EQUILIBRIUM ITERATION AT WHICH LOG. CONVERGENCE RATE CHECK BEGINS        20
     EQUILIBRIUM ITERATION AFTER WHICH ALTERNATE RESIDUAL IS USED              9
 *** MAXIMUM EQUILIBRIUM ITERATIONS ALLOWED                                   15
 *** EQUILIBRIUM ITERATION COUNT FOR CUT-BACK IN NEXT INCREMENT               15
 *** MAXIMUM EQUILIB. ITERS IN TWO INCREMENTS FOR TIME INCREMENT INCREASE     15
     MAXIMUM ITERATIONS FOR SEVERE DISCONTINUITIES                            50
 *** MAXIMUM CUT-BACKS ALLOWED IN AN INCREMENT                                30
     MAXIMUM DISCON. ITERS IN TWO INCREMENTS FOR TIME INCREMENT INCREASE      50
     MAXIMUM CONTACT AUGMENTATIONS FOR *SURFACE BEHAVIOR,AUGMENTED LAGRANGE    6
 *** CUT-BACK FACTOR AFTER DIVERGENCE                                 0.5000    
     CUT-BACK FACTOR FOR TOO SLOW CONVERGENCE                         0.5000    
     CUT-BACK FACTOR AFTER TOO MANY EQUILIBRIUM ITERATIONS            0.7500    
     CUT-BACK FACTOR AFTER TOO MANY SEVERE DISCONTINUITY ITERATIONS   0.2500    
     CUT-BACK FACTOR AFTER PROBLEMS IN ELEMENT ASSEMBLY               0.2500    
     INCREASE FACTOR AFTER TWO INCREMENTS THAT CONVERGE QUICKLY        1.500    
     MAX. TIME INCREMENT INCREASE FACTOR ALLOWED                       1.500    
     MAX. TIME INCREMENT INCREASE FACTOR ALLOWED (DYNAMICS)            1.250    
     MAX. TIME INCREMENT INCREASE FACTOR ALLOWED (DIFFUSION)           2.000    
     MINIMUM TIME INCREMENT RATIO FOR EXTRAPOLATION TO OCCUR          0.1000    
     MAX. RATIO OF TIME INCREMENT TO STABILITY LIMIT                   1.000    
     FRACTION OF STABILITY LIMIT FOR NEW TIME INCREMENT               0.9500    
     TIME INCREMENT INCREASE FACTOR BEFORE A TIME POINT                1.000    

 *** INDICATES USE OF NON-DEFAULT TIME INCREMENTATION CONTROL PARAMETER
     SELECTED WITH *CONTROLS
     AUTOMATIC TOLERANCES FOR OVERCLOSURE AND SEPARATION 
     PRESSURE ARE SUPPRESSED
     GLOBAL STABILIZATION CONTROL IS NOT USED
     FRICTION IS INCLUDED IN INCREMENT THAT THE CONTACT POINT CLOSES

          PRINT OF INCREMENT NUMBER, TIME, ETC., EVERY    1  INCREMENTS

     THE MAXIMUM NUMBER OF INCREMENTS IN THIS STEP IS                   10000

          LARGE DISPLACEMENT THEORY WILL BE USED

          UNSYMMETRIC MATRIX STORAGE AND SOLUTION WILL BE USED

     LINEAR EXTRAPOLATION WILL BE USED

     CHARACTERISTIC ELEMENT LENGTH     1.000E-03

     DETAILED OUTPUT OF DIAGNOSTICS TO DATABASE REQUESTED

     PRINT OF INCREMENT NUMBER, TIME, ETC., TO THE MESSAGE FILE EVERY     1  INCREMENTS

     ELEMENT OPERATIONS WILL BE CARRIED OUT IN PARALLEL USING   6 PROCESSORS

     COLLECTING STEP CONSTRAINT INFORMATION FOR OVERCONSTRAINT CHECKS


  INCREMENT     1 STARTS. ATTEMPT NUMBER  1, TIME INCREMENT  1.000E-04
 
     INITIAL ELEMENT LOAD BALANCE
        COMPUTE NODE   1   PROCESS    NUMBER OF ELEMENTS
                              1            1536
                              2            1536
                              3            1536
                              4            1536
                              5            1325
                              6            1792

  USING THE DIRECT SOLVER WITH   6 PROCESSORS

               CONVERGENCE CHECKS FOR EQUILIBRIUM ITERATION     1


 AVERAGE FORCE                      4.149E-05   TIME AVG. FORCE       4.149E-05
 LARGEST RESIDUAL FORCE            -4.279E-10   AT NODE       5556   DOF  1
 LARGEST INCREMENT OF DISP.        -1.835E-11   AT NODE       5555   DOF  2
 LARGEST CORRECTION TO DISP.       -1.835E-11   AT NODE       5555   DOF  2
          DISP.    CORRECTION TOO LARGE COMPARED TO DISP.    INCREMENT

  USING THE DIRECT SOLVER WITH   6 PROCESSORS

               CONVERGENCE CHECKS FOR EQUILIBRIUM ITERATION     2


 AVERAGE FORCE                      4.149E-05   TIME AVG. FORCE       4.149E-05
 LARGEST RESIDUAL FORCE             1.058E-10   AT NODE       5093   DOF  1
 LARGEST INCREMENT OF DISP.        -2.192E-11   AT NODE       5071   DOF  2
 LARGEST CORRECTION TO DISP.        3.670E-12   AT NODE       5577   DOF  1
          DISP.    CORRECTION TOO LARGE COMPARED TO DISP.    INCREMENT

  USING THE DIRECT SOLVER WITH   6 PROCESSORS

               CONVERGENCE CHECKS FOR EQUILIBRIUM ITERATION     3


 AVERAGE FORCE                      4.149E-05   TIME AVG. FORCE       4.149E-05
 LARGEST RESIDUAL FORCE             2.617E-11   AT NODE       5577   DOF  1
 LARGEST INCREMENT OF DISP.         2.280E-11   AT NODE       5578   DOF  2
 LARGEST CORRECTION TO DISP.       -9.079E-13   AT NODE       5072   DOF  1
 ESTIMATE OF DISP.    CORRECTION   -2.245E-13
 FORCE     EQUILIB. ACCEPTED BASED ON SMALL RESIDUAL AND ESTIMATED CORRECTION

 ITERATION SUMMARY FOR THE INCREMENT:   3 TOTAL ITERATIONS, OF WHICH
   0 ARE SEVERE DISCONTINUITY ITERATIONS AND  3 ARE EQUILIBRIUM ITERATIONS.

 TIME INCREMENT COMPLETED  1.000E-04,  FRACTION OF STEP COMPLETED  1.000E-02
 STEP TIME COMPLETED       1.000E-04,  TOTAL TIME COMPLETED         4.00    


  INCREMENT     2 STARTS. ATTEMPT NUMBER  1, TIME INCREMENT  1.000E-04

  USING THE DIRECT SOLVER WITH   6 PROCESSORS

               CONVERGENCE CHECKS FOR EQUILIBRIUM ITERATION     1


 AVERAGE FORCE                      4.202E-05   TIME AVG. FORCE       4.176E-05
 LARGEST RESIDUAL FORCE             4.106E-10   AT NODE       5072   DOF  1
 LARGEST INCREMENT OF DISP.         5.172E-12   AT NODE       5093   DOF  1
 LARGEST CORRECTION TO DISP.       -1.776E-11   AT NODE       5578   DOF  2
          FORCE     EQUILIB. ACCEPTED BASED ON SMALL RESIDUAL AND SMALL MAGNITUDE
           OF THE INCREMENT OF DISPLACEMENT
          TIME INCREMENT MAY NOW INCREASE TO    1.500E-04

 ITERATION SUMMARY FOR THE INCREMENT:   1 TOTAL ITERATIONS, OF WHICH
   0 ARE SEVERE DISCONTINUITY ITERATIONS AND  1 ARE EQUILIBRIUM ITERATIONS.

 TIME INCREMENT COMPLETED  1.000E-04,  FRACTION OF STEP COMPLETED  2.000E-02
 STEP TIME COMPLETED       2.000E-04,  TOTAL TIME COMPLETED         4.00    


  INCREMENT     3 STARTS. ATTEMPT NUMBER  1, TIME INCREMENT  1.500E-04

  USING THE DIRECT SOLVER WITH   6 PROCESSORS

               CONVERGENCE CHECKS FOR EQUILIBRIUM ITERATION     1


 AVERAGE FORCE                      4.202E-05   TIME AVG. FORCE       4.185E-05
 LARGEST RESIDUAL FORCE             2.637E-10   AT NODE       5556   DOF  1
 LARGEST INCREMENT OF DISP.        -1.385E-12   AT NODE       5093   DOF  1
 LARGEST CORRECTION TO DISP.       -9.144E-12   AT NODE       5093   DOF  1
          FORCE     EQUILIB. ACCEPTED BASED ON SMALL RESIDUAL AND SMALL MAGNITUDE
           OF THE INCREMENT OF DISPLACEMENT
          TIME INCREMENT MAY NOW INCREASE TO    2.250E-04

 ITERATION SUMMARY FOR THE INCREMENT:   1 TOTAL ITERATIONS, OF WHICH
   0 ARE SEVERE DISCONTINUITY ITERATIONS AND  1 ARE EQUILIBRIUM ITERATIONS.

 TIME INCREMENT COMPLETED  1.500E-04,  FRACTION OF STEP COMPLETED  3.500E-02
 STEP TIME COMPLETED       3.500E-04,  TOTAL TIME COMPLETED         4.00    


  INCREMENT     4 STARTS. ATTEMPT NUMBER  1, TIME INCREMENT  2.250E-04

  USING THE DIRECT SOLVER WITH   6 PROCESSORS

               CONVERGENCE CHECKS FOR EQUILIBRIUM ITERATION     1


 AVERAGE FORCE                      4.202E-05   TIME AVG. FORCE       4.189E-05
 LARGEST RESIDUAL FORCE             1.073E-11   AT NODE       5072   DOF  1
 LARGEST INCREMENT OF DISP.         2.452E-12   AT NODE       5556   DOF  1
 LARGEST CORRECTION TO DISP.        3.739E-13   AT NODE       5556   DOF  1
          FORCE     EQUILIB. ACCEPTED BASED ON SMALL RESIDUAL AND SMALL MAGNITUDE
           OF THE INCREMENT OF DISPLACEMENT
          TIME INCREMENT MAY NOW INCREASE TO    3.375E-04

 ITERATION SUMMARY FOR THE INCREMENT:   1 TOTAL ITERATIONS, OF WHICH
   0 ARE SEVERE DISCONTINUITY ITERATIONS AND  1 ARE EQUILIBRIUM ITERATIONS.

 TIME INCREMENT COMPLETED  2.250E-04,  FRACTION OF STEP COMPLETED  5.750E-02
 STEP TIME COMPLETED       5.750E-04,  TOTAL TIME COMPLETED         4.00    


  INCREMENT     5 STARTS. ATTEMPT NUMBER  1, TIME INCREMENT  3.375E-04

  USING THE DIRECT SOLVER WITH   6 PROCESSORS

               CONVERGENCE CHECKS FOR EQUILIBRIUM ITERATION     1


 AVERAGE FORCE                      4.202E-05   TIME AVG. FORCE       4.192E-05
 LARGEST RESIDUAL FORCE            -9.099E-11   AT NODE       5556   DOF  1
 LARGEST INCREMENT OF DISP.         5.209E-13   AT NODE       5072   DOF  1
 LARGEST CORRECTION TO DISP.        3.157E-12   AT NODE       5577   DOF  1
          FORCE     EQUILIB. ACCEPTED BASED ON SMALL RESIDUAL AND SMALL MAGNITUDE
           OF THE INCREMENT OF DISPLACEMENT
          TIME INCREMENT MAY NOW INCREASE TO    5.062E-04

 ITERATION SUMMARY FOR THE INCREMENT:   1 TOTAL ITERATIONS, OF WHICH
   0 ARE SEVERE DISCONTINUITY ITERATIONS AND  1 ARE EQUILIBRIUM ITERATIONS.

 TIME INCREMENT COMPLETED  3.375E-04,  FRACTION OF STEP COMPLETED  9.125E-02
 STEP TIME COMPLETED       9.125E-04,  TOTAL TIME COMPLETED         4.00    


  INCREMENT     6 STARTS. ATTEMPT NUMBER  1, TIME INCREMENT  5.062E-04

  USING THE DIRECT SOLVER WITH   6 PROCESSORS

               CONVERGENCE CHECKS FOR EQUILIBRIUM ITERATION     1


 AVERAGE FORCE                      4.202E-05   TIME AVG. FORCE       4.194E-05
 LARGEST RESIDUAL FORCE            -5.984E-11   AT NODE       5072   DOF  1
 LARGEST INCREMENT OF DISP.        -1.314E-12   AT NODE       5071   DOF  1
 LARGEST CORRECTION TO DISP.       -2.077E-12   AT NODE       5072   DOF  1
          FORCE     EQUILIB. ACCEPTED BASED ON SMALL RESIDUAL AND SMALL MAGNITUDE
           OF THE INCREMENT OF DISPLACEMENT
          TIME INCREMENT MAY NOW INCREASE TO    7.594E-04

 ITERATION SUMMARY FOR THE INCREMENT:   1 TOTAL ITERATIONS, OF WHICH
   0 ARE SEVERE DISCONTINUITY ITERATIONS AND  1 ARE EQUILIBRIUM ITERATIONS.

 TIME INCREMENT COMPLETED  5.062E-04,  FRACTION OF STEP COMPLETED  0.142    
 STEP TIME COMPLETED       1.419E-03,  TOTAL TIME COMPLETED         4.00    


  INCREMENT     7 STARTS. ATTEMPT NUMBER  1, TIME INCREMENT  7.594E-04

  USING THE DIRECT SOLVER WITH   6 PROCESSORS

               CONVERGENCE CHECKS FOR EQUILIBRIUM ITERATION     1


 AVERAGE FORCE                      4.202E-05   TIME AVG. FORCE       4.195E-05
 LARGEST RESIDUAL FORCE            -2.448E-12   AT NODE       5072   DOF  1
 LARGEST INCREMENT OF DISP.        -2.052E-12   AT NODE       5071   DOF  1
 LARGEST CORRECTION TO DISP.       -8.616E-14   AT NODE       5556   DOF  1
          FORCE     EQUILIB. ACCEPTED BASED ON SMALL RESIDUAL AND SMALL MAGNITUDE
           OF THE INCREMENT OF DISPLACEMENT
          TIME INCREMENT MAY NOW INCREASE TO    1.139E-03

 ITERATION SUMMARY FOR THE INCREMENT:   1 TOTAL ITERATIONS, OF WHICH
   0 ARE SEVERE DISCONTINUITY ITERATIONS AND  1 ARE EQUILIBRIUM ITERATIONS.

 TIME INCREMENT COMPLETED  7.594E-04,  FRACTION OF STEP COMPLETED  0.218    
 STEP TIME COMPLETED       2.178E-03,  TOTAL TIME COMPLETED         4.00    


  INCREMENT     8 STARTS. ATTEMPT NUMBER  1, TIME INCREMENT  1.139E-03

  USING THE DIRECT SOLVER WITH   6 PROCESSORS

               CONVERGENCE CHECKS FOR EQUILIBRIUM ITERATION     1


 AVERAGE FORCE                      4.202E-05   TIME AVG. FORCE       4.196E-05
 LARGEST RESIDUAL FORCE             2.235E-11   AT NODE       5072   DOF  1
 LARGEST INCREMENT OF DISP.         2.322E-12   AT NODE       5094   DOF  1
 LARGEST CORRECTION TO DISP.        7.732E-13   AT NODE       5556   DOF  1
          FORCE     EQUILIB. ACCEPTED BASED ON SMALL RESIDUAL AND SMALL MAGNITUDE
           OF THE INCREMENT OF DISPLACEMENT
          TIME INCREMENT MAY NOW INCREASE TO    1.709E-03

 ITERATION SUMMARY FOR THE INCREMENT:   1 TOTAL ITERATIONS, OF WHICH
   0 ARE SEVERE DISCONTINUITY ITERATIONS AND  1 ARE EQUILIBRIUM ITERATIONS.

 TIME INCREMENT COMPLETED  1.139E-03,  FRACTION OF STEP COMPLETED  0.332    
 STEP TIME COMPLETED       3.317E-03,  TOTAL TIME COMPLETED         4.00    


  INCREMENT     9 STARTS. ATTEMPT NUMBER  1, TIME INCREMENT  1.709E-03

  USING THE DIRECT SOLVER WITH   6 PROCESSORS

               CONVERGENCE CHECKS FOR EQUILIBRIUM ITERATION     1


 AVERAGE FORCE                      4.202E-05   TIME AVG. FORCE       4.196E-05
 LARGEST RESIDUAL FORCE            -1.813E-11   AT NODE       5577   DOF  1
 LARGEST INCREMENT OF DISP.        -2.868E-12   AT NODE       5555   DOF  1
 LARGEST CORRECTION TO DISP.       -6.244E-13   AT NODE       5577   DOF  1
          FORCE     EQUILIB. ACCEPTED BASED ON SMALL RESIDUAL AND SMALL MAGNITUDE
           OF THE INCREMENT OF DISPLACEMENT
          TIME INCREMENT MAY NOW INCREASE TO    2.563E-03

 ITERATION SUMMARY FOR THE INCREMENT:   1 TOTAL ITERATIONS, OF WHICH
   0 ARE SEVERE DISCONTINUITY ITERATIONS AND  1 ARE EQUILIBRIUM ITERATIONS.

 TIME INCREMENT COMPLETED  1.709E-03,  FRACTION OF STEP COMPLETED  0.503    
 STEP TIME COMPLETED       5.026E-03,  TOTAL TIME COMPLETED         4.01    


  INCREMENT    10 STARTS. ATTEMPT NUMBER  1, TIME INCREMENT  2.563E-03

  USING THE DIRECT SOLVER WITH   6 PROCESSORS

               CONVERGENCE CHECKS FOR EQUILIBRIUM ITERATION     1


 AVERAGE FORCE                      4.202E-05   TIME AVG. FORCE       4.197E-05
 LARGEST RESIDUAL FORCE             9.604E-12   AT NODE       5072   DOF  1
 LARGEST INCREMENT OF DISP.         3.968E-12   AT NODE       5094   DOF  1
 LARGEST CORRECTION TO DISP.        3.343E-13   AT NODE       5555   DOF  2
          FORCE     EQUILIB. ACCEPTED BASED ON SMALL RESIDUAL AND SMALL MAGNITUDE
           OF THE INCREMENT OF DISPLACEMENT

 ITERATION SUMMARY FOR THE INCREMENT:   1 TOTAL ITERATIONS, OF WHICH
   0 ARE SEVERE DISCONTINUITY ITERATIONS AND  1 ARE EQUILIBRIUM ITERATIONS.

 TIME INCREMENT COMPLETED  2.563E-03,  FRACTION OF STEP COMPLETED  0.759    
 STEP TIME COMPLETED       7.589E-03,  TOTAL TIME COMPLETED         4.01    


  INCREMENT    11 STARTS. ATTEMPT NUMBER  1, TIME INCREMENT  2.411E-03

  USING THE DIRECT SOLVER WITH   6 PROCESSORS

               CONVERGENCE CHECKS FOR EQUILIBRIUM ITERATION     1


 AVERAGE FORCE                      4.202E-05   TIME AVG. FORCE       4.198E-05
 LARGEST RESIDUAL FORCE            -5.657E-12   AT NODE       5093   DOF  1
 LARGEST INCREMENT OF DISP.         3.534E-12   AT NODE       5578   DOF  1
 LARGEST CORRECTION TO DISP.        1.986E-13   AT NODE       5555   DOF  2
          FORCE     EQUILIB. ACCEPTED BASED ON SMALL RESIDUAL AND SMALL MAGNITUDE
           OF THE INCREMENT OF DISPLACEMENT

 ITERATION SUMMARY FOR THE INCREMENT:   1 TOTAL ITERATIONS, OF WHICH
   0 ARE SEVERE DISCONTINUITY ITERATIONS AND  1 ARE EQUILIBRIUM ITERATIONS.

 TIME INCREMENT COMPLETED  2.411E-03,  FRACTION OF STEP COMPLETED   1.00    
 STEP TIME COMPLETED       1.000E-02,  TOTAL TIME COMPLETED         4.01    


          THE ANALYSIS HAS BEEN COMPLETED



     ANALYSIS SUMMARY:
     TOTAL OF         37  INCREMENTS
                       0  CUTBACKS IN AUTOMATIC INCREMENTATION
                      39  ITERATIONS INCLUDING CONTACT ITERATIONS IF PRESENT
                      39  PASSES THROUGH THE EQUATION SOLVER OF WHICH 
                      39  INVOLVE MATRIX DECOMPOSITION, INCLUDING
                       0  DECOMPOSITION(S) OF THE MASS MATRIX
                       1  REORDERING OF EQUATIONS TO MINIMIZE WAVEFRONT
                       0  ADDITIONAL RESIDUAL EVALUATIONS FOR LINE SEARCHES
                       0  ADDITIONAL OPERATOR EVALUATIONS FOR LINE SEARCHES
                    9279  WARNING MESSAGES DURING USER INPUT PROCESSING
                      10  WARNING MESSAGES DURING ANALYSIS
                       0  ANALYSIS WARNINGS ARE NUMERICAL PROBLEM MESSAGES
                       0  ANALYSIS WARNINGS ARE NEGATIVE EIGENVALUE MESSAGES
                       0  ERROR MESSAGES



     JOB TIME SUMMARY
       USER TIME (SEC)      =   2022.7    
       SYSTEM TIME (SEC)    =   27.220    
       TOTAL CPU TIME (SEC) =   2049.9    
       WALLCLOCK TIME (SEC) =        392
